Circuit: * Z:\home\shinu\Desktop\thermal_sampler\sims\Draft1.asc

Direct Newton iteration for .op point succeeded.
Heightened Def Con from 0.000453001 to 0.000453004
Heightened Def Con from 0.000453004 to 0.000453004
Heightened Def Con from 0.000453004 to 0.000453005
Heightened Def Con from 0.000453005 to 0.000453005
Heightened Def Con from 0.000453005 to 0.000453006
Heightened Def Con from 0.000453006 to 0.000453006
Heightened Def Con from 0.000453006 to 0.000453006
Heightened Def Con from 0.000453006 to 0.000453006
Heightened Def Con from 0.000453006 to 0.000453006
Heightened Def Con from 0.000453006 to 0.000453006
Heightened Def Con from 0.000453006 to 0.000453006
Heightened Def Con from 0.000453006 to 0.000453006
Heightened Def Con from 0.000453006 to 0.000453006
Heightened Def Con from 0.000453006 to 0.000453006
Heightened Def Con from 0.000453006 to 0.000453006
Heightened Def Con from 0.000453006 to 0.000453006
Heightened Def Con from 0.000453006 to 0.000453006
Heightened Def Con from 0.000453006 to 0.000453006
Heightened Def Con from 0.000453006 to 0.000453007
Heightened Def Con from 0.000453007 to 0.000453007
Heightened Def Con from 0.000453007 to 0.000453008
Heightened Def Con from 0.000453008 to 0.000453008
Heightened Def Con from 0.000453008 to 0.000453009
Heightened Def Con from 0.000453009 to 0.000453009
Heightened Def Con from 0.000453009 to 0.000453009
Heightened Def Con from 0.000453009 to 0.000453009
Heightened Def Con from 0.000453009 to 0.000453009
Heightened Def Con from 0.000453009 to 0.000453009
Heightened Def Con from 0.000453009 to 0.000453009
Heightened Def Con from 0.000453009 to 0.000453011
Heightened Def Con from 0.000453011 to 0.000453011
Heightened Def Con from 0.000453011 to 0.000453011
Heightened Def Con from 0.000453011 to 0.000453011
Heightened Def Con from 0.000453011 to 0.000453011
Heightened Def Con from 0.000453011 to 0.000453011
Heightened Def Con from 0.000453012 to 0.000453012
Heightened Def Con from 0.000453012 to 0.000453012
Heightened Def Con from 0.000453012 to 0.000453012
Heightened Def Con from 0.000453012 to 0.000453012
Heightened Def Con from 0.000453012 to 0.000453012
Heightened Def Con from 0.000453012 to 0.000453012
Heightened Def Con from 0.000453012 to 0.000453014
Heightened Def Con from 0.000453014 to 0.000453014
Heightened Def Con from 0.000453014 to 0.000453015
Heightened Def Con from 0.000453015 to 0.000453015
Heightened Def Con from 0.000453015 to 0.000453015
Heightened Def Con from 0.000453015 to 0.000453015
Heightened Def Con from 0.000453015 to 0.000453015
Heightened Def Con from 0.000453015 to 0.000453015
Heightened Def Con from 0.000453015 to 0.000453016
Heightened Def Con from 0.000453016 to 0.000453016
Heightened Def Con from 0.000453016 to 0.000453016
Heightened Def Con from 0.000453016 to 0.000453016
Heightened Def Con from 0.000453016 to 0.000453016
Heightened Def Con from 0.000453016 to 0.000453017
Heightened Def Con from 0.000453017 to 0.000453017
Heightened Def Con from 0.000453017 to 0.000453019
Heightened Def Con from 0.00045302 to 0.00045302
Heightened Def Con from 0.00045302 to 0.00045302
Heightened Def Con from 0.00045302 to 0.00045302
Heightened Def Con from 0.00045302 to 0.000453021
Heightened Def Con from 0.000453021 to 0.000453021
Heightened Def Con from 0.000453021 to 0.000453021
Heightened Def Con from 0.000453021 to 0.000453021
Heightened Def Con from 0.000453021 to 0.000453021
Heightened Def Con from 0.000453021 to 0.000453022
Heightened Def Con from 0.000453022 to 0.000453022
Heightened Def Con from 0.000453022 to 0.000453022
Heightened Def Con from 0.000453022 to 0.000453022
Heightened Def Con from 0.000453022 to 0.000453023
Heightened Def Con from 0.000453023 to 0.000453023
Heightened Def Con from 0.000453023 to 0.000453023
Heightened Def Con from 0.000453023 to 0.000453023
Heightened Def Con from 0.000453023 to 0.000453023
Heightened Def Con from 0.000453023 to 0.000453023
Heightened Def Con from 0.000453023 to 0.000453023
Heightened Def Con from 0.000453023 to 0.000453024
Heightened Def Con from 0.000453024 to 0.000453024
Heightened Def Con from 0.000453024 to 0.000453024
Heightened Def Con from 0.000453024 to 0.000453024
Heightened Def Con from 0.000453024 to 0.000453025
Heightened Def Con from 0.000453025 to 0.000453025
Heightened Def Con from 0.000453025 to 0.000453026
Heightened Def Con from 0.000453026 to 0.000453026
Heightened Def Con from 0.000453026 to 0.000453027
Heightened Def Con from 0.000453027 to 0.000453028
Heightened Def Con from 0.000453028 to 0.000453028
Heightened Def Con from 0.000453028 to 0.000453028
Heightened Def Con from 0.000453028 to 0.000453028
Heightened Def Con from 0.000453028 to 0.000453028
Heightened Def Con from 0.000453028 to 0.000453028
Heightened Def Con from 0.000453028 to 0.000453028
Heightened Def Con from 0.000453028 to 0.000453028
Heightened Def Con from 0.000453028 to 0.000453028
Heightened Def Con from 0.000453028 to 0.000453029
Heightened Def Con from 0.000453029 to 0.000453029
Heightened Def Con from 0.000453029 to 0.000453029
Heightened Def Con from 0.000453029 to 0.000453029
Heightened Def Con from 0.000453029 to 0.000453029
Heightened Def Con from 0.000453029 to 0.000453029
Heightened Def Con from 0.000453029 to 0.000453029
Heightened Def Con from 0.000453029 to 0.000453029
Heightened Def Con from 0.000453029 to 0.000453029
Heightened Def Con from 0.000453029 to 0.000453031
Heightened Def Con from 0.000453031 to 0.000453032
Heightened Def Con from 0.000453032 to 0.000453032
Heightened Def Con from 0.000453032 to 0.000453032
Heightened Def Con from 0.000453032 to 0.000453032
Heightened Def Con from 0.000453032 to 0.000453032
Heightened Def Con from 0.000453032 to 0.000453032
Heightened Def Con from 0.000453032 to 0.000453033
Heightened Def Con from 0.000453033 to 0.000453034
Heightened Def Con from 0.000453034 to 0.000453034
Heightened Def Con from 0.000453034 to 0.000453034
Heightened Def Con from 0.000453034 to 0.000453034
Heightened Def Con from 0.000453034 to 0.000453034
Heightened Def Con from 0.000453034 to 0.000453034
Heightened Def Con from 0.000453034 to 0.000453034
Heightened Def Con from 0.000453034 to 0.000453034
Heightened Def Con from 0.000453034 to 0.000453035
Heightened Def Con from 0.000453035 to 0.000453035
Heightened Def Con from 0.000453035 to 0.000453035
Heightened Def Con from 0.000453035 to 0.000453036
Heightened Def Con from 0.000453036 to 0.000453037
Heightened Def Con from 0.000453037 to 0.000453037
Heightened Def Con from 0.000453037 to 0.000453037
Heightened Def Con from 0.000453037 to 0.000453038
Heightened Def Con from 0.000453038 to 0.000453038
Heightened Def Con from 0.000453038 to 0.000453038
Heightened Def Con from 0.000453038 to 0.000453038
Heightened Def Con from 0.000453038 to 0.000453038
Heightened Def Con from 0.000453038 to 0.000453038
Heightened Def Con from 0.000453038 to 0.000453038
Heightened Def Con from 0.000453038 to 0.000453038
Heightened Def Con from 0.000453038 to 0.000453039
Heightened Def Con from 0.000453039 to 0.000453039
Heightened Def Con from 0.000453039 to 0.000453039
Heightened Def Con from 0.000453039 to 0.000453039
Heightened Def Con from 0.000453039 to 0.000453039
Heightened Def Con from 0.000453039 to 0.000453039
Heightened Def Con from 0.000453039 to 0.00045304
Heightened Def Con from 0.00045304 to 0.00045304
Heightened Def Con from 0.00045304 to 0.000453041
Heightened Def Con from 0.000453041 to 0.000453041
Heightened Def Con from 0.000453041 to 0.000453041
Heightened Def Con from 0.000453041 to 0.000453042
Heightened Def Con from 0.000453042 to 0.000453042
Heightened Def Con from 0.000453042 to 0.000453043
Heightened Def Con from 0.000453043 to 0.000453043
Heightened Def Con from 0.000453043 to 0.000453045
Heightened Def Con from 0.000453045 to 0.000453046
Heightened Def Con from 0.000453046 to 0.000453046
Heightened Def Con from 0.000453046 to 0.000453046
Heightened Def Con from 0.000453046 to 0.000453046
Heightened Def Con from 0.000453046 to 0.000453046
Heightened Def Con from 0.000453046 to 0.000453046
Heightened Def Con from 0.000453046 to 0.000453046
Heightened Def Con from 0.000453046 to 0.000453046
Heightened Def Con from 0.000453046 to 0.000453046
Heightened Def Con from 0.000453046 to 0.000453046
Heightened Def Con from 0.000453046 to 0.000453046
Heightened Def Con from 0.000453046 to 0.000453046
Heightened Def Con from 0.000453046 to 0.000453046
Heightened Def Con from 0.000453046 to 0.000453046
Heightened Def Con from 0.000453046 to 0.000453048
Heightened Def Con from 0.000453048 to 0.000453048
Heightened Def Con from 0.000453048 to 0.000453048
Heightened Def Con from 0.000453048 to 0.000453049
Heightened Def Con from 0.000453049 to 0.00045305
Heightened Def Con from 0.00045305 to 0.00045305
Heightened Def Con from 0.00045305 to 0.00045305
Heightened Def Con from 0.00045305 to 0.000453051
Heightened Def Con from 0.000453051 to 0.000453051
Heightened Def Con from 0.000453051 to 0.000453051
Heightened Def Con from 0.000453051 to 0.000453051
Heightened Def Con from 0.000453051 to 0.000453051
Heightened Def Con from 0.000453051 to 0.000453052
Heightened Def Con from 0.000453052 to 0.000453052
Heightened Def Con from 0.000453052 to 0.000453054
Heightened Def Con from 0.000453054 to 0.000453054
Heightened Def Con from 0.000453054 to 0.000453055
Heightened Def Con from 0.000453055 to 0.000453055
Heightened Def Con from 0.000453056 to 0.000453056
Heightened Def Con from 0.000453056 to 0.000453056
Heightened Def Con from 0.000453056 to 0.000453056
Heightened Def Con from 0.000453056 to 0.000453057
Heightened Def Con from 0.000453057 to 0.000453057
Heightened Def Con from 0.000453057 to 0.000453057
Heightened Def Con from 0.000453057 to 0.000453057
Heightened Def Con from 0.000453057 to 0.000453057
Heightened Def Con from 0.000453057 to 0.000453058
Heightened Def Con from 0.000453058 to 0.000453059
Heightened Def Con from 0.000453059 to 0.00045306
Heightened Def Con from 0.00045306 to 0.00045306
Heightened Def Con from 0.00045306 to 0.00045306
Heightened Def Con from 0.00045306 to 0.00045306
Heightened Def Con from 0.00045306 to 0.000453061
Heightened Def Con from 0.000453061 to 0.000453061
Heightened Def Con from 0.000453061 to 0.000453062
Heightened Def Con from 0.000453062 to 0.000453062
Heightened Def Con from 0.000453062 to 0.000453062
Heightened Def Con from 0.000453062 to 0.000453062
Heightened Def Con from 0.000453062 to 0.000453062
Heightened Def Con from 0.000453062 to 0.000453062
Heightened Def Con from 0.000453062 to 0.000453062
Heightened Def Con from 0.000453062 to 0.000453063
Heightened Def Con from 0.000453063 to 0.000453064
Heightened Def Con from 0.000453064 to 0.000453064
Heightened Def Con from 0.000453064 to 0.000453064
Heightened Def Con from 0.000453064 to 0.000453064
Heightened Def Con from 0.000453064 to 0.000453065
Heightened Def Con from 0.000453065 to 0.000453065
Heightened Def Con from 0.000453065 to 0.000453066
Heightened Def Con from 0.000453066 to 0.000453066
Heightened Def Con from 0.000453066 to 0.000453066
Heightened Def Con from 0.000453066 to 0.000453066
Heightened Def Con from 0.000453066 to 0.000453066
Heightened Def Con from 0.000453066 to 0.000453067
Heightened Def Con from 0.000453067 to 0.000453068
Heightened Def Con from 0.000453068 to 0.000453069
Heightened Def Con from 0.000453069 to 0.00045307
Heightened Def Con from 0.00045307 to 0.000453071
Heightened Def Con from 0.000453071 to 0.000453071
Heightened Def Con from 0.000453071 to 0.000453073
Heightened Def Con from 0.000453073 to 0.000453073
Heightened Def Con from 0.000453073 to 0.000453075
Heightened Def Con from 0.000453078 to 0.000453079
Heightened Def Con from 0.000453079 to 0.000453081
Heightened Def Con from 0.000453081 to 0.000453081
Heightened Def Con from 0.000453081 to 0.000453081
Heightened Def Con from 0.000453081 to 0.000453081
Heightened Def Con from 0.000453081 to 0.000453081
Heightened Def Con from 0.000453081 to 0.000453082
Heightened Def Con from 0.000453082 to 0.000453082
Heightened Def Con from 0.000453082 to 0.000453082
Heightened Def Con from 0.000453082 to 0.000453082
Heightened Def Con from 0.000453082 to 0.000453082
Heightened Def Con from 0.000453082 to 0.000453082
Heightened Def Con from 0.000453082 to 0.000453083
Heightened Def Con from 0.000453083 to 0.000453083
Heightened Def Con from 0.000453083 to 0.000453083
Heightened Def Con from 0.000453083 to 0.000453083
Heightened Def Con from 0.000453083 to 0.000453083
Heightened Def Con from 0.000453083 to 0.000453083
Heightened Def Con from 0.000453083 to 0.000453083
Heightened Def Con from 0.000453083 to 0.000453083
Heightened Def Con from 0.000453083 to 0.000453085
Heightened Def Con from 0.000453085 to 0.000453086
Heightened Def Con from 0.000453086 to 0.000453086
Heightened Def Con from 0.000453086 to 0.000453086
Heightened Def Con from 0.000453086 to 0.000453086
Heightened Def Con from 0.000453086 to 0.000453086
Heightened Def Con from 0.000453086 to 0.000453086
Heightened Def Con from 0.000453086 to 0.000453087
Heightened Def Con from 0.000453087 to 0.000453087
Heightened Def Con from 0.000453087 to 0.000453087
Heightened Def Con from 0.000453087 to 0.000453087
Heightened Def Con from 0.000453087 to 0.000453087
Heightened Def Con from 0.000453087 to 0.000453087
Heightened Def Con from 0.000453087 to 0.000453087
Heightened Def Con from 0.000453087 to 0.000453087
Heightened Def Con from 0.000453087 to 0.000453087
Heightened Def Con from 0.000453087 to 0.000453087
Heightened Def Con from 0.000453087 to 0.000453087
Heightened Def Con from 0.000453087 to 0.000453087
Heightened Def Con from 0.000453087 to 0.000453087
Heightened Def Con from 0.000453087 to 0.000453087
Heightened Def Con from 0.000453087 to 0.000453088
Heightened Def Con from 0.000453088 to 0.000453088
Heightened Def Con from 0.000453088 to 0.000453089
Heightened Def Con from 0.000453089 to 0.000453089
Heightened Def Con from 0.000453089 to 0.000453089
Heightened Def Con from 0.000453089 to 0.000453089
Heightened Def Con from 0.000453089 to 0.000453089
Heightened Def Con from 0.000453089 to 0.000453089
Heightened Def Con from 0.000453089 to 0.000453091
Heightened Def Con from 0.000453093 to 0.000453093
Heightened Def Con from 0.000453093 to 0.000453093
Heightened Def Con from 0.000453093 to 0.000453094
Heightened Def Con from 0.000453094 to 0.000453094
Heightened Def Con from 0.000453094 to 0.000453094
Heightened Def Con from 0.000453094 to 0.000453094
Heightened Def Con from 0.000453094 to 0.000453094
Heightened Def Con from 0.000453094 to 0.000453094
Heightened Def Con from 0.000453094 to 0.000453094
Heightened Def Con from 0.000453094 to 0.000453094
Heightened Def Con from 0.000453094 to 0.000453094
Heightened Def Con from 0.000453094 to 0.000453094
Heightened Def Con from 0.000453094 to 0.000453094
Heightened Def Con from 0.000453094 to 0.000453094
Heightened Def Con from 0.000453094 to 0.000453094
Heightened Def Con from 0.000453094 to 0.000453094
Heightened Def Con from 0.000453094 to 0.000453095
Heightened Def Con from 0.000453095 to 0.000453095
Heightened Def Con from 0.000453095 to 0.000453095
Heightened Def Con from 0.000453095 to 0.000453095
Heightened Def Con from 0.000453095 to 0.000453095
Heightened Def Con from 0.000453095 to 0.000453095
Heightened Def Con from 0.000453095 to 0.000453095
Heightened Def Con from 0.000453095 to 0.000453095
Heightened Def Con from 0.000453095 to 0.000453095
Heightened Def Con from 0.000453095 to 0.000453095
Heightened Def Con from 0.000453095 to 0.000453095
Heightened Def Con from 0.000453095 to 0.000453095
Heightened Def Con from 0.000453095 to 0.000453096
Heightened Def Con from 0.000453096 to 0.000453096
Heightened Def Con from 0.000453096 to 0.000453097
Heightened Def Con from 0.000453097 to 0.000453098
Heightened Def Con from 0.000453098 to 0.000453099
Heightened Def Con from 0.000453099 to 0.000453099
Heightened Def Con from 0.000453099 to 0.0004531
Heightened Def Con from 0.0004531 to 0.0004531
Heightened Def Con from 0.0004531 to 0.000453101
Heightened Def Con from 0.000453101 to 0.000453102
Heightened Def Con from 0.000453102 to 0.000453102
Heightened Def Con from 0.000453102 to 0.000453102
Heightened Def Con from 0.000453102 to 0.000453102
Heightened Def Con from 0.000453102 to 0.000453103
Heightened Def Con from 0.000453103 to 0.000453103
Heightened Def Con from 0.000453103 to 0.000453103
Heightened Def Con from 0.000453103 to 0.000453104
Heightened Def Con from 0.000453104 to 0.000453104
Heightened Def Con from 0.000453104 to 0.000453104
Heightened Def Con from 0.000453104 to 0.000453104
Heightened Def Con from 0.000453104 to 0.000453106
Heightened Def Con from 0.000453107 to 0.000453107
Heightened Def Con from 0.000453107 to 0.000453107
Heightened Def Con from 0.000453107 to 0.000453107
Heightened Def Con from 0.000453107 to 0.000453107
Heightened Def Con from 0.000453107 to 0.000453107
Heightened Def Con from 0.000453107 to 0.000453107
Heightened Def Con from 0.000453107 to 0.000453107
Heightened Def Con from 0.000453107 to 0.000453107
Heightened Def Con from 0.000453107 to 0.000453108
Heightened Def Con from 0.000453108 to 0.000453108
Heightened Def Con from 0.000453108 to 0.000453108
Heightened Def Con from 0.000453108 to 0.000453109
Heightened Def Con from 0.000453109 to 0.000453109
Heightened Def Con from 0.000453109 to 0.000453109
Heightened Def Con from 0.000453109 to 0.000453109
Heightened Def Con from 0.000453109 to 0.000453109
Heightened Def Con from 0.000453109 to 0.000453109
Heightened Def Con from 0.000453109 to 0.000453109
Heightened Def Con from 0.000453109 to 0.000453109
Heightened Def Con from 0.000453109 to 0.000453109
Heightened Def Con from 0.000453109 to 0.000453109
Heightened Def Con from 0.000453109 to 0.000453109
Heightened Def Con from 0.000453109 to 0.000453109
Heightened Def Con from 0.000453109 to 0.000453109
Heightened Def Con from 0.000453109 to 0.000453109
Heightened Def Con from 0.000453109 to 0.000453109
Heightened Def Con from 0.000453109 to 0.00045311
Heightened Def Con from 0.00045311 to 0.00045311
Heightened Def Con from 0.00045311 to 0.000453111
Heightened Def Con from 0.000453111 to 0.000453111
Heightened Def Con from 0.000453111 to 0.000453112
Heightened Def Con from 0.000453112 to 0.000453112
Heightened Def Con from 0.000453112 to 0.000453112
Heightened Def Con from 0.000453112 to 0.000453112
Heightened Def Con from 0.000453112 to 0.000453112
Heightened Def Con from 0.000453112 to 0.000453112
Heightened Def Con from 0.000453112 to 0.000453112
Heightened Def Con from 0.000453112 to 0.000453112
Heightened Def Con from 0.000453112 to 0.000453112
Heightened Def Con from 0.000453112 to 0.000453113
Heightened Def Con from 0.000453113 to 0.000453113
Heightened Def Con from 0.000453113 to 0.000453114
Heightened Def Con from 0.000453114 to 0.000453114
Heightened Def Con from 0.000453114 to 0.000453114
Heightened Def Con from 0.000453114 to 0.000453115
Heightened Def Con from 0.000453115 to 0.000453116
Heightened Def Con from 0.000453116 to 0.000453116
Heightened Def Con from 0.000453116 to 0.000453116
Heightened Def Con from 0.000453116 to 0.000453117
Heightened Def Con from 0.000453117 to 0.000453119
Heightened Def Con from 0.000453119 to 0.000453119
Heightened Def Con from 0.000453119 to 0.00045312
Heightened Def Con from 0.00045312 to 0.00045312
Heightened Def Con from 0.00045312 to 0.00045312
Heightened Def Con from 0.00045312 to 0.00045312
Heightened Def Con from 0.00045312 to 0.00045312
Heightened Def Con from 0.00045312 to 0.00045312
Heightened Def Con from 0.00045312 to 0.000453121
Heightened Def Con from 0.000453121 to 0.000453121
Heightened Def Con from 0.000453121 to 0.000453121
Heightened Def Con from 0.000453121 to 0.000453121
Heightened Def Con from 0.000453121 to 0.000453121
Heightened Def Con from 0.000453121 to 0.000453121
Heightened Def Con from 0.000453121 to 0.000453121
Heightened Def Con from 0.000453121 to 0.000453121
Heightened Def Con from 0.000453121 to 0.000453122
Heightened Def Con from 0.000453122 to 0.000453123
Heightened Def Con from 0.000453123 to 0.000453123
Heightened Def Con from 0.000453123 to 0.000453123
Heightened Def Con from 0.000453123 to 0.000453123
Heightened Def Con from 0.000453123 to 0.000453124
Heightened Def Con from 0.000453124 to 0.000453124
Heightened Def Con from 0.000453124 to 0.000453124
Heightened Def Con from 0.000453124 to 0.000453124
Heightened Def Con from 0.000453124 to 0.000453125
Heightened Def Con from 0.000453125 to 0.000453125
Heightened Def Con from 0.000453125 to 0.000453126
Heightened Def Con from 0.000453126 to 0.000453126
Heightened Def Con from 0.000453126 to 0.000453126
Heightened Def Con from 0.000453126 to 0.000453126
Heightened Def Con from 0.000453126 to 0.000453126
Heightened Def Con from 0.000453126 to 0.000453128
Heightened Def Con from 0.000453128 to 0.000453128
Heightened Def Con from 0.000453128 to 0.000453129
Heightened Def Con from 0.000453129 to 0.000453129
Heightened Def Con from 0.000453129 to 0.000453129
Heightened Def Con from 0.000453129 to 0.000453129
Heightened Def Con from 0.000453129 to 0.000453129
Heightened Def Con from 0.000453129 to 0.000453129
Heightened Def Con from 0.000453129 to 0.00045313
Heightened Def Con from 0.00045313 to 0.00045313
Heightened Def Con from 0.00045313 to 0.00045313
Heightened Def Con from 0.00045313 to 0.00045313
Heightened Def Con from 0.00045313 to 0.000453131
Heightened Def Con from 0.000453131 to 0.000453131
Heightened Def Con from 0.000453131 to 0.000453132
Heightened Def Con from 0.000453132 to 0.000453132
Heightened Def Con from 0.000453132 to 0.000453132
Heightened Def Con from 0.000453132 to 0.000453132
Heightened Def Con from 0.000453132 to 0.000453132
Heightened Def Con from 0.000453132 to 0.000453132
Heightened Def Con from 0.000453132 to 0.000453132
Heightened Def Con from 0.000453132 to 0.000453133
Heightened Def Con from 0.000453133 to 0.000453133
Heightened Def Con from 0.000453133 to 0.000453133
Heightened Def Con from 0.000453133 to 0.000453134
Heightened Def Con from 0.000453134 to 0.000453135
Heightened Def Con from 0.000453135 to 0.000453135
Heightened Def Con from 0.000453135 to 0.000453135
Heightened Def Con from 0.000453135 to 0.000453135
Heightened Def Con from 0.000453135 to 0.000453135
Heightened Def Con from 0.000453135 to 0.000453137
Heightened Def Con from 0.000453137 to 0.000453138
Heightened Def Con from 0.000453138 to 0.000453138
Heightened Def Con from 0.000453138 to 0.00045314
Heightened Def Con from 0.000453143 to 0.000453143
Heightened Def Con from 0.000453143 to 0.000453143
Heightened Def Con from 0.000453143 to 0.000453143
Heightened Def Con from 0.000453143 to 0.000453143
Heightened Def Con from 0.000453143 to 0.000453143
Heightened Def Con from 0.000453143 to 0.000453143
Heightened Def Con from 0.000453143 to 0.000453143
Heightened Def Con from 0.000453143 to 0.000453143
Heightened Def Con from 0.000453143 to 0.000453143
Heightened Def Con from 0.000453143 to 0.000453144
Heightened Def Con from 0.000453144 to 0.000453145
Heightened Def Con from 0.000453145 to 0.000453145
Heightened Def Con from 0.000453145 to 0.000453145
Heightened Def Con from 0.000453145 to 0.000453145
Heightened Def Con from 0.000453145 to 0.000453145
Heightened Def Con from 0.000453145 to 0.000453146
Heightened Def Con from 0.000453146 to 0.000453146
Heightened Def Con from 0.000453146 to 0.000453148
Heightened Def Con from 0.000453148 to 0.000453148
Heightened Def Con from 0.000453148 to 0.000453149
Heightened Def Con from 0.000453149 to 0.000453149
Heightened Def Con from 0.000453149 to 0.000453149
Heightened Def Con from 0.000453149 to 0.000453149
Heightened Def Con from 0.000453149 to 0.000453149
Heightened Def Con from 0.000453149 to 0.000453149
Heightened Def Con from 0.000453149 to 0.000453149
Heightened Def Con from 0.000453149 to 0.000453149
Heightened Def Con from 0.000453149 to 0.00045315
Heightened Def Con from 0.00045315 to 0.000453151
Heightened Def Con from 0.000453151 to 0.000453151
Heightened Def Con from 0.000453151 to 0.000453151
Heightened Def Con from 0.000453151 to 0.000453153
Heightened Def Con from 0.000453153 to 0.000453153
Heightened Def Con from 0.000453153 to 0.000453153
Heightened Def Con from 0.000453153 to 0.000453153
Heightened Def Con from 0.000453153 to 0.000453153
Heightened Def Con from 0.000453153 to 0.000453153
Heightened Def Con from 0.000453153 to 0.000453153
Heightened Def Con from 0.000453153 to 0.000453153
Heightened Def Con from 0.000453153 to 0.000453154
Heightened Def Con from 0.000453154 to 0.000453155
Heightened Def Con from 0.000453155 to 0.000453155
Heightened Def Con from 0.000453155 to 0.000453155
Heightened Def Con from 0.000453155 to 0.000453155
Heightened Def Con from 0.000453155 to 0.000453155
Heightened Def Con from 0.000453155 to 0.000453155
Heightened Def Con from 0.000453155 to 0.000453155
Heightened Def Con from 0.000453155 to 0.000453155
Heightened Def Con from 0.000453155 to 0.000453156
Heightened Def Con from 0.000453156 to 0.000453156
Heightened Def Con from 0.000453156 to 0.000453157
Heightened Def Con from 0.000453157 to 0.000453158
Heightened Def Con from 0.000453158 to 0.000453158
Heightened Def Con from 0.000453158 to 0.000453158
Heightened Def Con from 0.000453158 to 0.000453158
Heightened Def Con from 0.000453158 to 0.000453158
Heightened Def Con from 0.000453158 to 0.000453159
Heightened Def Con from 0.000453159 to 0.00045316
Heightened Def Con from 0.00045316 to 0.00045316
Heightened Def Con from 0.00045316 to 0.00045316
Heightened Def Con from 0.00045316 to 0.00045316
Heightened Def Con from 0.00045316 to 0.000453162
Heightened Def Con from 0.000453162 to 0.000453163
Heightened Def Con from 0.000453163 to 0.000453163
Heightened Def Con from 0.000453163 to 0.000453164
Heightened Def Con from 0.000453164 to 0.000453165
Heightened Def Con from 0.000453165 to 0.000453165
Heightened Def Con from 0.000453165 to 0.000453165
Heightened Def Con from 0.000453165 to 0.000453165
Heightened Def Con from 0.000453165 to 0.000453165
Heightened Def Con from 0.000453165 to 0.000453166
Heightened Def Con from 0.000453166 to 0.000453167
Heightened Def Con from 0.000453167 to 0.000453167
Heightened Def Con from 0.000453167 to 0.000453167
Heightened Def Con from 0.000453167 to 0.000453167
Heightened Def Con from 0.000453167 to 0.000453167
Heightened Def Con from 0.000453167 to 0.000453167
Heightened Def Con from 0.000453167 to 0.000453168
Heightened Def Con from 0.000453168 to 0.000453168
Heightened Def Con from 0.000453168 to 0.000453169
Heightened Def Con from 0.000453169 to 0.00045317
Heightened Def Con from 0.00045317 to 0.000453171
Heightened Def Con from 0.000453171 to 0.000453172
Heightened Def Con from 0.000453172 to 0.000453172
Heightened Def Con from 0.000453172 to 0.000453172
Heightened Def Con from 0.000453172 to 0.000453172
Heightened Def Con from 0.000453172 to 0.000453172
Heightened Def Con from 0.000453172 to 0.000453172
Heightened Def Con from 0.000453172 to 0.000453172
Heightened Def Con from 0.000453172 to 0.000453172
Heightened Def Con from 0.000453172 to 0.000453172
Heightened Def Con from 0.000453172 to 0.000453172
Heightened Def Con from 0.000453172 to 0.000453172
Heightened Def Con from 0.000453172 to 0.000453172
Heightened Def Con from 0.000453172 to 0.000453172
Heightened Def Con from 0.000453172 to 0.000453172
Heightened Def Con from 0.000453172 to 0.000453172
Heightened Def Con from 0.000453172 to 0.000453172
Heightened Def Con from 0.000453172 to 0.000453172
Heightened Def Con from 0.000453172 to 0.000453173
Heightened Def Con from 0.000453173 to 0.000453173
Heightened Def Con from 0.000453173 to 0.000453173
Heightened Def Con from 0.000453173 to 0.000453173
Heightened Def Con from 0.000453173 to 0.000453174
Heightened Def Con from 0.000453174 to 0.000453175
Heightened Def Con from 0.000453175 to 0.000453176
Heightened Def Con from 0.000453176 to 0.000453176
Heightened Def Con from 0.000453176 to 0.000453178
Heightened Def Con from 0.00045318 to 0.000453181
Heightened Def Con from 0.000453181 to 0.000453181
Heightened Def Con from 0.000453181 to 0.000453182
Heightened Def Con from 0.000453182 to 0.000453182
Heightened Def Con from 0.000453182 to 0.000453182
Heightened Def Con from 0.000453182 to 0.000453182
Heightened Def Con from 0.000453182 to 0.000453183
Heightened Def Con from 0.000453183 to 0.000453183
Heightened Def Con from 0.000453183 to 0.000453184
Heightened Def Con from 0.000453184 to 0.000453184
Heightened Def Con from 0.000453184 to 0.000453185
Heightened Def Con from 0.000453185 to 0.000453185
Heightened Def Con from 0.000453185 to 0.000453186
Heightened Def Con from 0.000453186 to 0.000453186
Heightened Def Con from 0.000453186 to 0.000453187
Heightened Def Con from 0.000453188 to 0.000453188
Heightened Def Con from 0.000453188 to 0.000453189
Heightened Def Con from 0.000453189 to 0.000453189
Heightened Def Con from 0.000453189 to 0.00045319
Heightened Def Con from 0.00045319 to 0.000453192
Heightened Def Con from 0.000453192 to 0.000453192
Heightened Def Con from 0.000453192 to 0.000453192
Heightened Def Con from 0.000453192 to 0.000453192
Heightened Def Con from 0.000453192 to 0.000453192
Heightened Def Con from 0.000453192 to 0.000453192
Heightened Def Con from 0.000453192 to 0.000453192
Heightened Def Con from 0.000453192 to 0.000453192
Heightened Def Con from 0.000453192 to 0.000453192
Heightened Def Con from 0.000453192 to 0.000453193
Heightened Def Con from 0.000453193 to 0.000453193
Heightened Def Con from 0.000453193 to 0.000453193
Heightened Def Con from 0.000453193 to 0.000453193
Heightened Def Con from 0.000453193 to 0.000453193
Heightened Def Con from 0.000453193 to 0.000453193
Heightened Def Con from 0.000453193 to 0.000453193
Heightened Def Con from 0.000453193 to 0.000453194
Heightened Def Con from 0.000453194 to 0.000453194
Heightened Def Con from 0.000453194 to 0.000453196
Heightened Def Con from 0.000453196 to 0.000453196
Heightened Def Con from 0.000453196 to 0.000453196
Heightened Def Con from 0.000453196 to 0.000453197
Heightened Def Con from 0.000453197 to 0.000453197
Heightened Def Con from 0.000453198 to 0.000453198
Heightened Def Con from 0.000453198 to 0.000453198
Heightened Def Con from 0.000453198 to 0.000453198
Heightened Def Con from 0.000453198 to 0.000453198
Heightened Def Con from 0.000453198 to 0.000453198
Heightened Def Con from 0.000453198 to 0.000453198
Heightened Def Con from 0.000453198 to 0.000453198
Heightened Def Con from 0.000453198 to 0.000453198
Heightened Def Con from 0.000453198 to 0.000453198
Heightened Def Con from 0.000453198 to 0.000453198
Heightened Def Con from 0.000453198 to 0.000453198
Heightened Def Con from 0.000453198 to 0.000453198
Heightened Def Con from 0.000453198 to 0.000453198
Heightened Def Con from 0.000453199 to 0.0004532
Heightened Def Con from 0.0004532 to 0.0004532
Heightened Def Con from 0.0004532 to 0.0004532
Heightened Def Con from 0.0004532 to 0.0004532
Heightened Def Con from 0.0004532 to 0.000453201
Heightened Def Con from 0.000453201 to 0.000453203
Heightened Def Con from 0.000453203 to 0.000453203
Heightened Def Con from 0.000453203 to 0.000453204
Heightened Def Con from 0.000453204 to 0.000453204
Heightened Def Con from 0.000453204 to 0.000453204
Heightened Def Con from 0.000453204 to 0.000453205
Heightened Def Con from 0.000453206 to 0.000453206
Heightened Def Con from 0.000453206 to 0.000453207
Heightened Def Con from 0.000453207 to 0.000453207
Heightened Def Con from 0.000453207 to 0.000453207
Heightened Def Con from 0.000453207 to 0.000453207
Heightened Def Con from 0.000453207 to 0.000453207
Heightened Def Con from 0.000453207 to 0.000453207
Heightened Def Con from 0.000453207 to 0.000453207
Heightened Def Con from 0.000453207 to 0.000453207
Heightened Def Con from 0.000453207 to 0.000453207
Heightened Def Con from 0.000453207 to 0.000453207
Heightened Def Con from 0.000453207 to 0.000453207
Heightened Def Con from 0.000453207 to 0.000453208
Heightened Def Con from 0.000453208 to 0.000453209
Heightened Def Con from 0.000453209 to 0.000453209
Heightened Def Con from 0.000453209 to 0.000453209
Heightened Def Con from 0.000453209 to 0.00045321
Heightened Def Con from 0.00045321 to 0.00045321
Heightened Def Con from 0.00045321 to 0.000453211
Heightened Def Con from 0.000453211 to 0.000453211
Heightened Def Con from 0.000453211 to 0.000453211
Heightened Def Con from 0.000453211 to 0.000453211
Heightened Def Con from 0.000453211 to 0.000453211
Heightened Def Con from 0.000453211 to 0.000453212
Heightened Def Con from 0.000453212 to 0.000453212
Heightened Def Con from 0.000453212 to 0.000453213
Heightened Def Con from 0.000453213 to 0.000453213
Heightened Def Con from 0.000453213 to 0.000453213
Heightened Def Con from 0.000453213 to 0.000453213
Heightened Def Con from 0.000453213 to 0.000453213
Heightened Def Con from 0.000453213 to 0.000453213
Heightened Def Con from 0.000453213 to 0.000453214
Heightened Def Con from 0.000453214 to 0.000453214
Heightened Def Con from 0.000453214 to 0.000453214
Heightened Def Con from 0.000453214 to 0.000453214
Heightened Def Con from 0.000453214 to 0.000453214
Heightened Def Con from 0.000453214 to 0.000453214
Heightened Def Con from 0.000453214 to 0.000453214
Heightened Def Con from 0.000453214 to 0.000453214
Heightened Def Con from 0.000453214 to 0.000453216
Heightened Def Con from 0.000453218 to 0.000453218
Heightened Def Con from 0.000453218 to 0.000453218
Heightened Def Con from 0.000453218 to 0.000453218
Heightened Def Con from 0.000453218 to 0.000453218
Heightened Def Con from 0.000453218 to 0.000453218
Heightened Def Con from 0.000453218 to 0.000453218
Heightened Def Con from 0.000453218 to 0.000453218
Heightened Def Con from 0.000453218 to 0.000453218
Heightened Def Con from 0.000453218 to 0.000453218
Heightened Def Con from 0.000453218 to 0.000453218
Heightened Def Con from 0.000453218 to 0.000453219
Heightened Def Con from 0.000453219 to 0.000453219
Heightened Def Con from 0.000453219 to 0.000453219
Heightened Def Con from 0.000453219 to 0.00045322
Heightened Def Con from 0.00045322 to 0.000453221
Heightened Def Con from 0.000453221 to 0.000453221
Heightened Def Con from 0.000453221 to 0.000453221
Heightened Def Con from 0.000453221 to 0.000453221
Heightened Def Con from 0.000453221 to 0.000453221
Heightened Def Con from 0.000453221 to 0.000453221
Heightened Def Con from 0.000453221 to 0.000453221
Heightened Def Con from 0.000453221 to 0.000453221
Heightened Def Con from 0.000453221 to 0.000453221
Heightened Def Con from 0.000453221 to 0.000453221
Heightened Def Con from 0.000453221 to 0.000453221
Heightened Def Con from 0.000453221 to 0.000453221
Heightened Def Con from 0.000453221 to 0.000453222
Heightened Def Con from 0.000453222 to 0.000453222
Heightened Def Con from 0.000453222 to 0.000453222
Heightened Def Con from 0.000453222 to 0.000453222
Heightened Def Con from 0.000453222 to 0.000453222
Heightened Def Con from 0.000453222 to 0.000453222
Heightened Def Con from 0.000453222 to 0.000453222
Heightened Def Con from 0.000453222 to 0.000453222
Heightened Def Con from 0.000453222 to 0.000453222
Heightened Def Con from 0.000453222 to 0.000453222
Heightened Def Con from 0.000453222 to 0.000453222
Heightened Def Con from 0.000453222 to 0.000453222
Heightened Def Con from 0.000453222 to 0.000453222
Heightened Def Con from 0.000453222 to 0.000453222
Heightened Def Con from 0.000453222 to 0.000453222
Heightened Def Con from 0.000453222 to 0.000453223
Heightened Def Con from 0.000453223 to 0.000453224
Heightened Def Con from 0.000453224 to 0.000453224
Heightened Def Con from 0.000453224 to 0.000453225
Heightened Def Con from 0.000453225 to 0.000453226
Heightened Def Con from 0.000453226 to 0.000453227
Heightened Def Con from 0.000453227 to 0.000453227
Heightened Def Con from 0.000453227 to 0.000453227
Heightened Def Con from 0.000453227 to 0.000453229
Heightened Def Con from 0.000453229 to 0.00045323
Heightened Def Con from 0.00045323 to 0.000453231
Heightened Def Con from 0.000453231 to 0.000453231
Heightened Def Con from 0.000453231 to 0.000453231
Heightened Def Con from 0.000453231 to 0.000453232
Heightened Def Con from 0.000453233 to 0.000453234
Heightened Def Con from 0.000453234 to 0.000453234
Heightened Def Con from 0.000453234 to 0.000453234
Heightened Def Con from 0.000453234 to 0.000453235
Heightened Def Con from 0.000453235 to 0.000453235
Heightened Def Con from 0.000453235 to 0.000453235
Heightened Def Con from 0.000453235 to 0.000453235
Heightened Def Con from 0.000453235 to 0.000453235
Heightened Def Con from 0.000453235 to 0.000453236
Heightened Def Con from 0.000453236 to 0.000453236
Heightened Def Con from 0.000453236 to 0.000453237
Heightened Def Con from 0.000453237 to 0.000453238
Heightened Def Con from 0.000453238 to 0.000453238
Heightened Def Con from 0.000453238 to 0.000453238
Heightened Def Con from 0.000453238 to 0.000453238
Heightened Def Con from 0.000453238 to 0.000453238
Heightened Def Con from 0.000453238 to 0.000453238
Heightened Def Con from 0.000453238 to 0.000453238
Heightened Def Con from 0.000453238 to 0.000453238
Heightened Def Con from 0.000453238 to 0.000453238
Heightened Def Con from 0.000453238 to 0.000453239
Heightened Def Con from 0.000453239 to 0.000453241
Heightened Def Con from 0.000453243 to 0.000453243
Heightened Def Con from 0.000453243 to 0.000453243
Heightened Def Con from 0.000453243 to 0.000453244
Heightened Def Con from 0.000453244 to 0.000453245
Heightened Def Con from 0.000453245 to 0.000453245
Heightened Def Con from 0.000453245 to 0.000453246
Heightened Def Con from 0.000453246 to 0.000453246
Heightened Def Con from 0.000453246 to 0.000453246
Heightened Def Con from 0.000453246 to 0.000453246
Heightened Def Con from 0.000453246 to 0.000453246
Heightened Def Con from 0.000453246 to 0.000453247
Heightened Def Con from 0.000453247 to 0.000453248
Heightened Def Con from 0.000453248 to 0.00045325
Heightened Def Con from 0.000453253 to 0.000453253
Heightened Def Con from 0.000453253 to 0.000453253
Heightened Def Con from 0.000453253 to 0.000453253
Heightened Def Con from 0.000453253 to 0.000453253
Heightened Def Con from 0.000453253 to 0.000453253
Heightened Def Con from 0.000453253 to 0.000453253
Heightened Def Con from 0.000453253 to 0.000453254
Heightened Def Con from 0.000453254 to 0.000453256
Heightened Def Con from 0.000453258 to 0.000453258
Heightened Def Con from 0.000453258 to 0.000453258
Heightened Def Con from 0.000453258 to 0.000453258
Heightened Def Con from 0.000453258 to 0.000453258
Heightened Def Con from 0.000453258 to 0.000453258
Heightened Def Con from 0.000453258 to 0.000453259
Heightened Def Con from 0.000453259 to 0.000453259
Heightened Def Con from 0.000453259 to 0.000453259
Heightened Def Con from 0.000453259 to 0.000453259
Heightened Def Con from 0.000453259 to 0.000453259
Heightened Def Con from 0.000453259 to 0.000453259
Heightened Def Con from 0.000453259 to 0.000453259
Heightened Def Con from 0.000453259 to 0.000453259
Heightened Def Con from 0.000453259 to 0.000453259
Heightened Def Con from 0.000453259 to 0.000453259
Heightened Def Con from 0.000453259 to 0.000453259
Heightened Def Con from 0.000453259 to 0.000453259
Heightened Def Con from 0.000453259 to 0.000453261
Heightened Def Con from 0.000453261 to 0.000453261
Heightened Def Con from 0.000453261 to 0.000453261
Heightened Def Con from 0.000453261 to 0.000453261
Heightened Def Con from 0.000453261 to 0.000453261
Heightened Def Con from 0.000453261 to 0.000453263
Heightened Def Con from 0.000453263 to 0.000453263
Heightened Def Con from 0.000453263 to 0.000453263
Heightened Def Con from 0.000453263 to 0.000453263
Heightened Def Con from 0.000453263 to 0.000453263
Heightened Def Con from 0.000453263 to 0.000453263
Heightened Def Con from 0.000453263 to 0.000453263
Heightened Def Con from 0.000453263 to 0.000453264
Heightened Def Con from 0.000453264 to 0.000453264
Heightened Def Con from 0.000453264 to 0.000453264
Heightened Def Con from 0.000453264 to 0.000453264
Heightened Def Con from 0.000453264 to 0.000453264
Heightened Def Con from 0.000453264 to 0.000453265
Heightened Def Con from 0.000453265 to 0.000453265
Heightened Def Con from 0.000453265 to 0.000453266
Heightened Def Con from 0.000453266 to 0.000453266
Heightened Def Con from 0.000453266 to 0.000453266
Heightened Def Con from 0.000453266 to 0.000453266
Heightened Def Con from 0.000453266 to 0.000453266
Heightened Def Con from 0.000453266 to 0.000453266
Heightened Def Con from 0.000453266 to 0.000453266
Heightened Def Con from 0.000453266 to 0.000453267
Heightened Def Con from 0.000453267 to 0.000453267
Heightened Def Con from 0.000453267 to 0.000453267
Heightened Def Con from 0.000453267 to 0.000453268
Heightened Def Con from 0.000453268 to 0.000453268
Heightened Def Con from 0.000453268 to 0.000453268
Heightened Def Con from 0.000453268 to 0.000453268
Heightened Def Con from 0.000453268 to 0.000453268
Heightened Def Con from 0.000453268 to 0.000453268
Heightened Def Con from 0.000453268 to 0.000453269
Heightened Def Con from 0.000453269 to 0.000453269
Heightened Def Con from 0.000453269 to 0.000453269
Heightened Def Con from 0.000453269 to 0.00045327
Heightened Def Con from 0.00045327 to 0.00045327
Heightened Def Con from 0.00045327 to 0.00045327
Heightened Def Con from 0.00045327 to 0.00045327
Heightened Def Con from 0.00045327 to 0.000453271
Heightened Def Con from 0.000453271 to 0.000453271
Heightened Def Con from 0.000453271 to 0.000453271
Heightened Def Con from 0.000453271 to 0.000453271
Heightened Def Con from 0.000453271 to 0.000453271
Heightened Def Con from 0.000453271 to 0.000453271
Heightened Def Con from 0.000453271 to 0.000453271
Heightened Def Con from 0.000453271 to 0.000453271
Heightened Def Con from 0.000453271 to 0.000453272
Heightened Def Con from 0.000453272 to 0.000453272
Heightened Def Con from 0.000453272 to 0.000453272
Heightened Def Con from 0.000453272 to 0.000453274
Heightened Def Con from 0.000453274 to 0.000453274
Heightened Def Con from 0.000453274 to 0.000453274
Heightened Def Con from 0.000453274 to 0.000453274
Heightened Def Con from 0.000453274 to 0.000453274
Heightened Def Con from 0.000453274 to 0.000453275
Heightened Def Con from 0.000453275 to 0.000453275
Heightened Def Con from 0.000453275 to 0.000453275
Heightened Def Con from 0.000453275 to 0.000453275
Heightened Def Con from 0.000453275 to 0.000453276
Heightened Def Con from 0.000453276 to 0.000453276
Heightened Def Con from 0.000453276 to 0.000453276
Heightened Def Con from 0.000453276 to 0.000453276
Heightened Def Con from 0.000453276 to 0.000453276
Heightened Def Con from 0.000453276 to 0.000453277
Heightened Def Con from 0.000453277 to 0.000453279
Heightened Def Con from 0.000453279 to 0.000453279
Heightened Def Con from 0.000453279 to 0.00045328
Heightened Def Con from 0.000453281 to 0.000453281
Heightened Def Con from 0.000453281 to 0.000453281
Heightened Def Con from 0.000453281 to 0.000453281
Heightened Def Con from 0.000453281 to 0.000453281
Heightened Def Con from 0.000453281 to 0.000453281
Heightened Def Con from 0.000453281 to 0.000453283
Heightened Def Con from 0.000453283 to 0.000453283
Heightened Def Con from 0.000453283 to 0.000453283
Heightened Def Con from 0.000453283 to 0.000453283
Heightened Def Con from 0.000453283 to 0.000453284
Heightened Def Con from 0.000453284 to 0.000453285
Heightened Def Con from 0.000453285 to 0.000453285
Heightened Def Con from 0.000453285 to 0.000453286
Heightened Def Con from 0.000453286 to 0.000453287
Heightened Def Con from 0.000453287 to 0.000453287
Heightened Def Con from 0.000453287 to 0.000453287
Heightened Def Con from 0.000453287 to 0.000453287
Heightened Def Con from 0.000453287 to 0.000453287
Heightened Def Con from 0.000453287 to 0.000453288
Heightened Def Con from 0.000453288 to 0.000453288
Heightened Def Con from 0.000453288 to 0.000453288
Heightened Def Con from 0.000453288 to 0.000453288
Heightened Def Con from 0.000453288 to 0.000453288
Heightened Def Con from 0.000453288 to 0.000453289
Heightened Def Con from 0.00045329 to 0.00045329
Heightened Def Con from 0.00045329 to 0.00045329
Heightened Def Con from 0.00045329 to 0.00045329
Heightened Def Con from 0.00045329 to 0.00045329
Heightened Def Con from 0.00045329 to 0.00045329
Heightened Def Con from 0.00045329 to 0.00045329
Heightened Def Con from 0.00045329 to 0.00045329
Heightened Def Con from 0.00045329 to 0.00045329
Heightened Def Con from 0.00045329 to 0.000453291
Heightened Def Con from 0.000453291 to 0.000453291
Heightened Def Con from 0.000453291 to 0.000453291
Heightened Def Con from 0.000453291 to 0.000453291
Heightened Def Con from 0.000453291 to 0.000453291
Heightened Def Con from 0.000453291 to 0.000453291
Heightened Def Con from 0.000453291 to 0.000453291
Heightened Def Con from 0.000453291 to 0.000453293
Heightened Def Con from 0.000453293 to 0.000453293
Heightened Def Con from 0.000453293 to 0.000453293
Heightened Def Con from 0.000453293 to 0.000453293
Heightened Def Con from 0.000453293 to 0.000453293
Heightened Def Con from 0.000453293 to 0.000453293
Heightened Def Con from 0.000453293 to 0.000453293
Heightened Def Con from 0.000453293 to 0.000453293
Heightened Def Con from 0.000453293 to 0.000453293
Heightened Def Con from 0.000453293 to 0.000453293
Heightened Def Con from 0.000453293 to 0.000453293
Heightened Def Con from 0.000453293 to 0.000453294
Heightened Def Con from 0.000453294 to 0.000453294
Heightened Def Con from 0.000453294 to 0.000453294
Heightened Def Con from 0.000453294 to 0.000453294
Heightened Def Con from 0.000453294 to 0.000453295
Heightened Def Con from 0.000453295 to 0.000453295
Heightened Def Con from 0.000453295 to 0.000453295
Heightened Def Con from 0.000453295 to 0.000453296
Heightened Def Con from 0.000453296 to 0.000453296
Heightened Def Con from 0.000453296 to 0.000453296
Heightened Def Con from 0.000453296 to 0.000453298
Heightened Def Con from 0.000453298 to 0.000453298
Heightened Def Con from 0.000453298 to 0.000453298
Heightened Def Con from 0.000453298 to 0.000453298
Heightened Def Con from 0.000453298 to 0.000453298
Heightened Def Con from 0.000453298 to 0.000453298
Heightened Def Con from 0.000453298 to 0.000453298
Heightened Def Con from 0.000453298 to 0.000453298
Heightened Def Con from 0.000453298 to 0.000453299
Heightened Def Con from 0.000453299 to 0.0004533
Heightened Def Con from 0.0004533 to 0.0004533
Heightened Def Con from 0.0004533 to 0.000453301
Heightened Def Con from 0.000453301 to 0.000453301
Heightened Def Con from 0.000453301 to 0.000453301
Heightened Def Con from 0.000453301 to 0.000453301
Heightened Def Con from 0.000453301 to 0.000453301
Heightened Def Con from 0.000453301 to 0.000453302
Heightened Def Con from 0.000453302 to 0.000453302
Heightened Def Con from 0.000453302 to 0.000453303
Heightened Def Con from 0.000453303 to 0.000453303
Heightened Def Con from 0.000453303 to 0.000453304
Heightened Def Con from 0.000453304 to 0.000453304
Heightened Def Con from 0.000453305 to 0.000453306
Heightened Def Con from 0.000453306 to 0.000453306
Heightened Def Con from 0.000453306 to 0.000453306
Heightened Def Con from 0.000453306 to 0.000453306
Heightened Def Con from 0.000453306 to 0.000453306
Heightened Def Con from 0.000453306 to 0.000453306
Heightened Def Con from 0.000453306 to 0.000453306
Heightened Def Con from 0.000453306 to 0.000453306
Heightened Def Con from 0.000453306 to 0.000453308
Heightened Def Con from 0.000453308 to 0.000453309
Heightened Def Con from 0.000453309 to 0.000453309
Heightened Def Con from 0.000453309 to 0.000453309
Heightened Def Con from 0.000453309 to 0.000453309
Heightened Def Con from 0.000453309 to 0.00045331
Heightened Def Con from 0.00045331 to 0.00045331
Heightened Def Con from 0.00045331 to 0.00045331
Heightened Def Con from 0.00045331 to 0.00045331
Heightened Def Con from 0.00045331 to 0.00045331
Heightened Def Con from 0.00045331 to 0.00045331
Heightened Def Con from 0.00045331 to 0.00045331
Heightened Def Con from 0.00045331 to 0.00045331
Heightened Def Con from 0.00045331 to 0.000453311
Heightened Def Con from 0.000453311 to 0.000453312
Heightened Def Con from 0.000453312 to 0.000453312
Heightened Def Con from 0.000453312 to 0.000453314
Heightened Def Con from 0.000453316 to 0.000453318
Heightened Def Con from 0.000453318 to 0.000453318
Heightened Def Con from 0.000453318 to 0.000453318
Heightened Def Con from 0.000453318 to 0.000453319
Heightened Def Con from 0.000453319 to 0.000453319
Heightened Def Con from 0.000453319 to 0.000453319
Heightened Def Con from 0.000453319 to 0.000453319
Heightened Def Con from 0.000453319 to 0.000453321
Heightened Def Con from 0.000453321 to 0.000453321
Heightened Def Con from 0.000453321 to 0.000453321
Heightened Def Con from 0.000453321 to 0.000453321
Heightened Def Con from 0.000453321 to 0.000453321
Heightened Def Con from 0.000453321 to 0.000453321
Heightened Def Con from 0.000453321 to 0.000453321
Heightened Def Con from 0.000453321 to 0.000453322
Heightened Def Con from 0.000453322 to 0.000453324
Heightened Def Con from 0.000453324 to 0.000453324
Heightened Def Con from 0.000453324 to 0.000453325
Heightened Def Con from 0.000453325 to 0.000453326
Heightened Def Con from 0.000453326 to 0.000453326
Heightened Def Con from 0.000453326 to 0.000453327
Heightened Def Con from 0.000453327 to 0.000453327
Heightened Def Con from 0.000453327 to 0.000453327
Heightened Def Con from 0.000453327 to 0.000453327
Heightened Def Con from 0.000453327 to 0.000453327
Heightened Def Con from 0.000453327 to 0.000453327
Heightened Def Con from 0.000453327 to 0.000453328
Heightened Def Con from 0.000453328 to 0.000453328
Heightened Def Con from 0.000453328 to 0.000453328
Heightened Def Con from 0.000453328 to 0.000453328
Heightened Def Con from 0.000453328 to 0.000453328
Heightened Def Con from 0.000453328 to 0.000453328
Heightened Def Con from 0.000453328 to 0.000453328
Heightened Def Con from 0.000453328 to 0.000453329
Heightened Def Con from 0.000453329 to 0.000453329
Heightened Def Con from 0.000453329 to 0.000453329
Heightened Def Con from 0.000453329 to 0.000453329
Heightened Def Con from 0.000453329 to 0.000453329
Heightened Def Con from 0.000453329 to 0.000453329
Heightened Def Con from 0.000453329 to 0.00045333
Heightened Def Con from 0.00045333 to 0.00045333
Heightened Def Con from 0.00045333 to 0.000453331
Heightened Def Con from 0.000453331 to 0.000453331
Heightened Def Con from 0.000453331 to 0.000453331
Heightened Def Con from 0.000453331 to 0.000453331
Heightened Def Con from 0.000453331 to 0.000453331
Heightened Def Con from 0.000453331 to 0.000453331
Heightened Def Con from 0.000453331 to 0.000453331
Heightened Def Con from 0.000453331 to 0.000453331
Heightened Def Con from 0.000453331 to 0.000453331
Heightened Def Con from 0.000453331 to 0.000453331
Heightened Def Con from 0.000453331 to 0.000453331
Heightened Def Con from 0.000453331 to 0.000453331
Heightened Def Con from 0.000453331 to 0.000453331
Heightened Def Con from 0.000453331 to 0.000453331
Heightened Def Con from 0.000453331 to 0.000453333
Heightened Def Con from 0.000453333 to 0.000453334
Heightened Def Con from 0.000453334 to 0.000453334
Heightened Def Con from 0.000453334 to 0.000453334
Heightened Def Con from 0.000453334 to 0.000453335
Heightened Def Con from 0.000453335 to 0.000453335
Heightened Def Con from 0.000453335 to 0.000453335
Heightened Def Con from 0.000453335 to 0.000453335
Heightened Def Con from 0.000453335 to 0.000453337
Heightened Def Con from 0.000453337 to 0.000453337
Heightened Def Con from 0.000453337 to 0.000453337
Heightened Def Con from 0.000453337 to 0.000453337
Heightened Def Con from 0.000453337 to 0.000453337
Heightened Def Con from 0.000453337 to 0.000453337
Heightened Def Con from 0.000453337 to 0.000453337
Heightened Def Con from 0.000453337 to 0.000453337
Heightened Def Con from 0.000453337 to 0.000453339
Heightened Def Con from 0.000453339 to 0.000453339
Heightened Def Con from 0.000453339 to 0.000453339
Heightened Def Con from 0.000453339 to 0.000453339
Heightened Def Con from 0.000453339 to 0.000453339
Heightened Def Con from 0.000453339 to 0.000453339
Heightened Def Con from 0.000453339 to 0.00045334
Heightened Def Con from 0.00045334 to 0.00045334
Heightened Def Con from 0.00045334 to 0.00045334
Heightened Def Con from 0.00045334 to 0.00045334
Heightened Def Con from 0.00045334 to 0.000453341
Heightened Def Con from 0.000453341 to 0.000453341
Heightened Def Con from 0.000453341 to 0.000453342
Heightened Def Con from 0.000453342 to 0.000453343
Heightened Def Con from 0.000453343 to 0.000453343
Heightened Def Con from 0.000453343 to 0.000453343
Heightened Def Con from 0.000453343 to 0.000453343
Heightened Def Con from 0.000453343 to 0.000453343
Heightened Def Con from 0.000453343 to 0.000453343
Heightened Def Con from 0.000453343 to 0.000453344
Heightened Def Con from 0.000453344 to 0.000453344
Heightened Def Con from 0.000453344 to 0.000453344
Heightened Def Con from 0.000453344 to 0.000453345
Heightened Def Con from 0.000453345 to 0.000453345
Heightened Def Con from 0.000453345 to 0.000453345
Heightened Def Con from 0.000453345 to 0.000453345
Heightened Def Con from 0.000453345 to 0.000453347
Heightened Def Con from 0.000453347 to 0.000453347
Heightened Def Con from 0.000453347 to 0.000453347
Heightened Def Con from 0.000453347 to 0.000453347
Heightened Def Con from 0.000453347 to 0.000453348
Heightened Def Con from 0.000453348 to 0.000453349
Heightened Def Con from 0.000453349 to 0.000453349
Heightened Def Con from 0.000453349 to 0.00045335
Heightened Def Con from 0.00045335 to 0.00045335
Heightened Def Con from 0.00045335 to 0.000453351
Heightened Def Con from 0.000453351 to 0.000453351
Heightened Def Con from 0.000453351 to 0.000453351
Heightened Def Con from 0.000453351 to 0.000453351
Heightened Def Con from 0.000453351 to 0.000453351
Heightened Def Con from 0.000453351 to 0.000453351
Heightened Def Con from 0.000453351 to 0.000453352
Heightened Def Con from 0.000453352 to 0.000453352
Heightened Def Con from 0.000453352 to 0.000453352
Heightened Def Con from 0.000453352 to 0.000453352
Heightened Def Con from 0.000453352 to 0.000453352
Heightened Def Con from 0.000453352 to 0.000453352
Heightened Def Con from 0.000453352 to 0.000453352
Heightened Def Con from 0.000453352 to 0.000453352
Heightened Def Con from 0.000453352 to 0.000453352
Heightened Def Con from 0.000453352 to 0.000453352
Heightened Def Con from 0.000453352 to 0.000453354
Heightened Def Con from 0.000453354 to 0.000453355
Heightened Def Con from 0.000453355 to 0.000453355
Heightened Def Con from 0.000453355 to 0.000453355
Heightened Def Con from 0.000453355 to 0.000453356
Heightened Def Con from 0.000453356 to 0.000453356
Heightened Def Con from 0.000453356 to 0.000453356
Heightened Def Con from 0.000453356 to 0.000453356
Heightened Def Con from 0.000453356 +to 0.000453357
Heightened Def Con from 0.000453363 to 0.000453363
Heightened Def Con from 0.000453363 to 0.000453363
Heightened Def Con from 0.000453363 to 0.000453365
Heightened Def Con from 0.000453365 to 0.000453365
Heightened Def Con from 0.000453365 to 0.000453367
Heightened Def Con from 0.000453369 to 0.000453369
Heightened Def Con from 0.000453369 to 0.000453369
Heightened Def Con from 0.000453369 to 0.000453369
Heightened Def Con from 0.000453369 to 0.000453369
Heightened Def Con from 0.000453369 to 0.000453369
Heightened Def Con from 0.000453369 to 0.00045337
Heightened Def Con from 0.00045337 to 0.00045337
Heightened Def Con from 0.00045337 to 0.000453371
Heightened Def Con from 0.000453371 to 0.000453371
Heightened Def Con from 0.000453371 to 0.000453372
Heightened Def Con from 0.000453372 to 0.000453372
Heightened Def Con from 0.000453372 to 0.000453372
Heightened Def Con from 0.000453372 to 0.000453373
Heightened Def Con from 0.000453373 to 0.000453374
Heightened Def Con from 0.000453374 to 0.000453374
Heightened Def Con from 0.000453374 to 0.000453374
Heightened Def Con from 0.000453374 to 0.000453376
Heightened Def Con from 0.000453376 to 0.000453376
Heightened Def Con from 0.000453376 to 0.000453376
Heightened Def Con from 0.000453376 to 0.000453376
Heightened Def Con from 0.000453376 to 0.000453376
Heightened Def Con from 0.000453376 to 0.000453376
Heightened Def Con from 0.000453376 to 0.000453377
Heightened Def Con from 0.000453377 to 0.000453377
Heightened Def Con from 0.000453377 to 0.000453378
Heightened Def Con from 0.000453378 to 0.000453379
Heightened Def Con from 0.000453379 to 0.00045338
Heightened Def Con from 0.00045338 to 0.00045338
Heightened Def Con from 0.00045338 to 0.00045338
Heightened Def Con from 0.00045338 to 0.00045338
Heightened Def Con from 0.00045338 to 0.00045338
Heightened Def Con from 0.00045338 to 0.00045338
Heightened Def Con from 0.00045338 to 0.00045338
Heightened Def Con from 0.00045338 to 0.000453381
Heightened Def Con from 0.000453381 to 0.000453382
Heightened Def Con from 0.000453382 to 0.000453382
Heightened Def Con from 0.000453382 to 0.000453382
Heightened Def Con from 0.000453382 to 0.000453382
Heightened Def Con from 0.000453382 to 0.000453382
Heightened Def Con from 0.000453382 to 0.000453382
Heightened Def Con from 0.000453382 to 0.000453382
Heightened Def Con from 0.000453382 to 0.000453382
Heightened Def Con from 0.000453382 to 0.000453382
Heightened Def Con from 0.000453382 to 0.000453382
Heightened Def Con from 0.000453382 to 0.000453382
Heightened Def Con from 0.000453382 to 0.000453382
Heightened Def Con from 0.000453382 to 0.000453382
Heightened Def Con from 0.000453382 to 0.000453382
Heightened Def Con from 0.000453382 to 0.000453383
Heightened Def Con from 0.000453383 to 0.000453383
Heightened Def Con from 0.000453383 to 0.000453383
Heightened Def Con from 0.000453383 to 0.000453383
Heightened Def Con from 0.000453383 to 0.000453383
Heightened Def Con from 0.000453383 to 0.000453383
Heightened Def Con from 0.000453383 to 0.000453383
Heightened Def Con from 0.000453383 to 0.000453383
Heightened Def Con from 0.000453383 to 0.000453383
Heightened Def Con from 0.000453383 to 0.000453384
Heightened Def Con from 0.000453384 to 0.000453384
Heightened Def Con from 0.000453384 to 0.000453384
Heightened Def Con from 0.000453384 to 0.000453384
Heightened Def Con from 0.000453384 to 0.000453385
Heightened Def Con from 0.000453385 to 0.000453385
Heightened Def Con from 0.000453385 to 0.000453386
Heightened Def Con from 0.000453386 to 0.000453386
Heightened Def Con from 0.000453386 to 0.000453387
Heightened Def Con from 0.000453387 to 0.000453387
Heightened Def Con from 0.000453387 to 0.000453387
Heightened Def Con from 0.000453387 to 0.000453387
Heightened Def Con from 0.000453387 to 0.000453387
Heightened Def Con from 0.000453387 to 0.000453387
Heightened Def Con from 0.000453387 to 0.000453387
Heightened Def Con from 0.000453387 to 0.000453387
Heightened Def Con from 0.000453387 to 0.000453387
Heightened Def Con from 0.000453387 to 0.000453387
Heightened Def Con from 0.000453387 to 0.000453389
Heightened Def Con from 0.000453391 to 0.000453392
Heightened Def Con from 0.000453392 to 0.000453392
Heightened Def Con from 0.000453392 to 0.000453392
Heightened Def Con from 0.000453392 to 0.000453393
Heightened Def Con from 0.000453393 to 0.000453393
Heightened Def Con from 0.000453393 to 0.000453394
Heightened Def Con from 0.000453394 to 0.000453394
Heightened Def Con from 0.000453394 to 0.000453394
Heightened Def Con from 0.000453394 to 0.000453394
Heightened Def Con from 0.000453394 to 0.000453394
Heightened Def Con from 0.000453394 to 0.000453394
Heightened Def Con from 0.000453394 to 0.000453394
Heightened Def Con from 0.000453394 to 0.000453394
Heightened Def Con from 0.000453394 to 0.000453394
Heightened Def Con from 0.000453394 to 0.000453394
Heightened Def Con from 0.000453394 to 0.000453394
Heightened Def Con from 0.000453394 to 0.000453394
Heightened Def Con from 0.000453394 to 0.000453394
Heightened Def Con from 0.000453394 to 0.000453394
Heightened Def Con from 0.000453394 to 0.000453396
Heightened Def Con from 0.000453396 to 0.000453396
Heightened Def Con from 0.000453396 to 0.000453396
Heightened Def Con from 0.000453396 to 0.000453396
Heightened Def Con from 0.000453396 to 0.000453398
Heightened Def Con from 0.000453404 to 0.000453404
Heightened Def Con from 0.000453404 to 0.000453405
Heightened Def Con from 0.000453405 to 0.000453405
Heightened Def Con from 0.000453405 to 0.000453406
Heightened Def Con from 0.000453406 to 0.000453407
Heightened Def Con from 0.000453407 to 0.000453407
Heightened Def Con from 0.000453407 to 0.000453407
Heightened Def Con from 0.000453407 to 0.000453407
Heightened Def Con from 0.000453407 to 0.000453407
Heightened Def Con from 0.000453407 to 0.000453408
Heightened Def Con from 0.000453408 to 0.000453408
Heightened Def Con from 0.000453408 to 0.000453408
Heightened Def Con from 0.000453408 to 0.000453408
Heightened Def Con from 0.000453408 to 0.000453409
Heightened Def Con from 0.000453409 to 0.00045341
Heightened Def Con from 0.00045341 to 0.00045341
Heightened Def Con from 0.00045341 to 0.00045341
Heightened Def Con from 0.00045341 to 0.00045341
Heightened Def Con from 0.00045341 to 0.000453411
Heightened Def Con from 0.000453411 to 0.000453411
Heightened Def Con from 0.000453411 to 0.000453411
Heightened Def Con from 0.000453411 to 0.000453411
Heightened Def Con from 0.000453411 to 0.000453412
Heightened Def Con from 0.000453412 to 0.000453412
Heightened Def Con from 0.000453412 to 0.000453412
Heightened Def Con from 0.000453412 to 0.000453412
Heightened Def Con from 0.000453413 to 0.000453413
Heightened Def Con from 0.000453413 to 0.000453413
Heightened Def Con from 0.000453413 to 0.000453413
Heightened Def Con from 0.000453413 to 0.000453413
Heightened Def Con from 0.000453413 to 0.000453413
Heightened Def Con from 0.000453413 to 0.000453413
Heightened Def Con from 0.000453413 to 0.000453413
Heightened Def Con from 0.000453413 to 0.000453413
Heightened Def Con from 0.000453413 to 0.000453413
Heightened Def Con from 0.000453413 +to 0.000453413
Heightened Def Con from 0.000453413 to 0.000453413
Heightened Def Con from 0.000453413 to 0.000453413
Heightened Def Con from 0.000453413 to 0.000453414
Heightened Def Con from 0.000453414 to 0.000453415
Heightened Def Con from 0.000453415 to 0.000453416
Heightened Def Con from 0.000453416 to 0.000453417
Heightened Def Con from 0.000453417 to 0.000453417
Heightened Def Con from 0.000453417 to 0.000453419
Heightened Def Con from 0.000453419 to 0.000453419
Heightened Def Con from 0.000453419 to 0.000453419
Heightened Def Con from 0.000453419 to 0.00045342
Heightened Def Con from 0.000453421 to 0.000453422
Heightened Def Con from 0.000453422 to 0.000453423
Heightened Def Con from 0.000453423 to 0.000453423
Heightened Def Con from 0.000453423 to 0.000453423
Heightened Def Con from 0.000453423 to 0.000453424
Heightened Def Con from 0.000453424 to 0.000453424
Heightened Def Con from 0.000453424 to 0.000453424
Heightened Def Con from 0.000453424 to 0.000453424
Heightened Def Con from 0.000453424 to 0.000453424
Heightened Def Con from 0.000453424 to 0.000453424
Heightened Def Con from 0.000453424 to 0.000453425
Heightened Def Con from 0.000453425 to 0.000453426
Heightened Def Con from 0.000453426 to 0.000453426
Heightened Def Con from 0.000453426 to 0.000453426
Heightened Def Con from 0.000453426 to 0.000453426
Heightened Def Con from 0.000453426 to 0.000453427
Heightened Def Con from 0.000453427 to 0.000453427
Heightened Def Con from 0.000453427 to 0.000453428
Heightened Def Con from 0.000453428 to 0.000453429
Heightened Def Con from 0.000453429 to 0.000453429
Heightened Def Con from 0.000453429 to 0.000453429
Heightened Def Con from 0.000453429 to 0.000453429
Heightened Def Con from 0.000453429 to 0.000453429
Heightened Def Con from 0.000453429 to 0.000453429
Heightened Def Con from 0.000453429 to 0.000453429
Heightened Def Con from 0.000453429 to 0.000453429
Heightened Def Con from 0.000453429 to 0.000453429
Heightened Def Con from 0.000453429 to 0.000453429
Heightened Def Con from 0.000453429 to 0.000453429
Heightened Def Con from 0.000453429 to 0.000453429
Heightened Def Con from 0.000453429 to 0.000453429
Heightened Def Con from 0.000453429 to 0.00045343
Heightened Def Con from 0.00045343 to 0.000453431
Heightened Def Con from 0.000453431 to 0.000453431
Heightened Def Con from 0.000453431 to 0.000453433
Heightened Def Con from 0.000453435 to 0.000453435
Heightened Def Con from 0.000453435 to 0.000453436
Heightened Def Con from 0.000453436 to 0.000453437
Heightened Def Con from 0.000453437 to 0.000453437
Heightened Def Con from 0.000453437 to 0.000453438
Heightened Def Con from 0.000453438 to 0.000453438
Heightened Def Con from 0.000453438 to 0.000453439
Heightened Def Con from 0.000453439 to 0.000453439
Heightened Def Con from 0.000453439 to 0.000453439
Heightened Def Con from 0.000453439 to 0.00045344
Heightened Def Con from 0.00045344 to 0.000453441
Heightened Def Con from 0.000453441 to 0.000453441
Heightened Def Con from 0.000453441 to 0.000453441
Heightened Def Con from 0.000453441 to 0.000453441
Heightened Def Con from 0.000453441 to 0.000453441
Heightened Def Con from 0.000453441 to 0.000453441
Heightened Def Con from 0.000453441 to 0.000453441
Heightened Def Con from 0.000453441 to 0.000453441
Heightened Def Con from 0.000453441 to 0.000453441
Heightened Def Con from 0.000453441 to 0.000453441
Heightened Def Con from 0.000453441 to 0.000453442
Heightened Def Con from 0.000453442 to 0.000453443
Heightened Def Con from 0.000453443 to 0.000453443
Heightened Def Con from 0.000453443 to 0.000453443
Heightened Def Con from 0.000453443 to 0.000453443
Heightened Def Con from 0.000453443 to 0.000453443
Heightened Def Con from 0.000453443 to 0.000453444
Heightened Def Con from 0.000453444 to 0.000453444
Heightened Def Con from 0.000453444 to 0.000453444
Heightened Def Con from 0.000453444 to 0.000453445
Heightened Def Con from 0.000453445 to 0.000453445
Heightened Def Con from 0.000453445 to 0.000453445
Heightened Def Con from 0.000453445 to 0.000453445
Heightened Def Con from 0.000453445 to 0.000453445
Heightened Def Con from 0.000453446 to 0.000453446
Heightened Def Con from 0.000453446 to 0.000453446
Heightened Def Con from 0.000453446 to 0.000453447
Heightened Def Con from 0.000453447 to 0.000453447
Heightened Def Con from 0.000453447 to 0.000453447
Heightened Def Con from 0.000453447 to 0.000453447
Heightened Def Con from 0.000453447 to 0.000453447
Heightened Def Con from 0.000453447 to 0.000453448
Heightened Def Con from 0.000453448 to 0.000453448
Heightened Def Con from 0.000453448 to 0.000453448
Heightened Def Con from 0.000453448 to 0.000453448
Heightened Def Con from 0.000453448 to 0.000453449
Heightened Def Con from 0.000453449 to 0.000453449
Heightened Def Con from 0.000453449 to 0.00045345
Heightened Def Con from 0.00045345 to 0.000453451
Heightened Def Con from 0.000453451 to 0.000453451
Heightened Def Con from 0.000453451 to 0.000453451
Heightened Def Con from 0.000453451 to 0.000453451
Heightened Def Con from 0.000453451 to 0.000453451
Heightened Def Con from 0.000453451 to 0.000453451
Heightened Def Con from 0.000453451 to 0.000453451
Heightened Def Con from 0.000453451 to 0.000453452
Heightened Def Con from 0.000453452 to 0.000453452
Heightened Def Con from 0.000453452 to 0.000453452
Heightened Def Con from 0.000453452 to 0.000453453
Heightened Def Con from 0.000453453 to 0.000453453
Heightened Def Con from 0.000453453 to 0.000453453
Heightened Def Con from 0.000453453 to 0.000453454
Heightened Def Con from 0.000453454 to 0.000453454
Heightened Def Con from 0.000453454 to 0.000453454
Heightened Def Con from 0.000453454 to 0.000453454
Heightened Def Con from 0.000453454 to 0.000453454
Heightened Def Con from 0.000453454 to 0.000453454
Heightened Def Con from 0.000453454 to 0.000453455
Heightened Def Con from 0.000453455 to 0.000453455
Heightened Def Con from 0.000453455 to 0.000453455
Heightened Def Con from 0.000453455 to 0.000453455
Heightened Def Con from 0.000453455 to 0.000453455
Heightened Def Con from 0.000453455 to 0.000453455
Heightened Def Con from 0.000453455 to 0.000453456
Heightened Def Con from 0.000453456 to 0.000453456
Heightened Def Con from 0.000453456 to 0.000453456
Heightened Def Con from 0.000453456 to 0.000453456
Heightened Def Con from 0.000453456 to 0.000453458
Heightened Def Con from 0.000453458 to 0.000453458
Heightened Def Con from 0.000453458 to 0.000453459
Heightened Def Con from 0.000453459 to 0.000453459
Heightened Def Con from 0.000453459 to 0.00045346
Heightened Def Con from 0.00045346 to 0.00045346
Heightened Def Con from 0.00045346 to 0.000453461
Heightened Def Con from 0.000453461 to 0.000453462
Heightened Def Con from 0.000453462 to 0.000453462
Heightened Def Con from 0.000453462 to 0.000453462
Heightened Def Con from 0.000453462 to 0.000453462
Heightened Def Con from 0.000453462 to 0.000453462
Heightened Def Con from 0.000453462 to 0.000453462
Heightened Def Con from 0.000453462 to 0.000453463
Heightened Def Con from 0.000453463 to 0.000453463
Heightened Def Con from 0.000453463 to 0.000453465
Heightened Def Con from 0.000453465 to 0.000453465
Heightened Def Con from 0.000453465 to 0.000453465
Heightened Def Con from 0.000453465 to 0.000453465
Heightened Def Con from 0.000453465 to 0.000453465
Heightened Def Con from 0.000453465 to 0.000453465
Heightened Def Con from 0.000453465 to 0.000453466
Heightened Def Con from 0.000453466 to 0.000453466
Heightened Def Con from 0.000453466 to 0.000453466
Heightened Def Con from 0.000453466 to 0.000453466
Heightened Def Con from 0.000453466 to 0.000453466
Heightened Def Con from 0.000453466 to 0.000453466
Heightened Def Con from 0.000453466 to 0.000453466
Heightened Def Con from 0.000453466 to 0.000453466
Heightened Def Con from 0.000453466 to 0.000453466
Heightened Def Con from 0.000453466 to 0.000453466
Heightened Def Con from 0.000453466 to 0.000453466
Heightened Def Con from 0.000453466 to 0.000453466
Heightened Def Con from 0.000453466 to 0.000453466
Heightened Def Con from 0.000453466 to 0.000453467
Heightened Def Con from 0.000453467 to 0.000453467
Heightened Def Con from 0.000453467 to 0.000453467
Heightened Def Con from 0.000453467 to 0.000453467
Heightened Def Con from 0.000453467 to 0.000453467
Heightened Def Con from 0.000453467 to 0.000453468
Heightened Def Con from 0.000453468 to 0.000453468
Heightened Def Con from 0.000453468 to 0.000453468
Heightened Def Con from 0.000453468 to 0.000453469
Heightened Def Con from 0.000453469 to 0.000453469
Heightened Def Con from 0.000453469 to 0.000453469
Heightened Def Con from 0.000453469 to 0.000453469
Heightened Def Con from 0.000453469 to 0.000453469
Heightened Def Con from 0.000453469 to 0.000453469
Heightened Def Con from 0.000453469 to 0.000453469
Heightened Def Con from 0.000453469 to 0.000453469
Heightened Def Con from 0.000453469 to 0.000453469
Heightened Def Con from 0.000453469 to 0.00045347
Heightened Def Con from 0.00045347 to 0.00045347
Heightened Def Con from 0.00045347 to 0.00045347
Heightened Def Con from 0.00045347 to 0.000453471
Heightened Def Con from 0.000453471 to 0.000453471
Heightened Def Con from 0.000453471 to 0.000453471
Heightened Def Con from 0.000453471 to 0.000453471
Heightened Def Con from 0.000453471 to 0.000453471
Heightened Def Con from 0.000453471 to 0.000453471
Heightened Def Con from 0.000453471 to 0.000453471
Heightened Def Con from 0.000453471 to 0.000453473
Heightened Def Con from 0.000453475 to 0.000453475
Heightened Def Con from 0.000453475 to 0.000453475
Heightened Def Con from 0.000453475 to 0.000453475
Heightened Def Con from 0.000453475 to 0.000453475
Heightened Def Con from 0.000453475 to 0.000453475
Heightened Def Con from 0.000453475 to 0.000453475
Heightened Def Con from 0.000453475 to 0.000453475
Heightened Def Con from 0.000453475 to 0.000453476
Heightened Def Con from 0.000453476 to 0.000453476
Heightened Def Con from 0.000453476 to 0.000453477
Heightened Def Con from 0.000453477 to 0.000453478
Heightened Def Con from 0.000453479 to 0.00045348
Heightened Def Con from 0.00045348 to 0.000453481
Heightened Def Con from 0.000453481 to 0.000453481
Heightened Def Con from 0.000453481 to 0.000453482
Heightened Def Con from 0.000453482 to 0.000453482
Heightened Def Con from 0.000453482 to 0.000453482
Heightened Def Con from 0.000453482 to 0.000453483
Heightened Def Con from 0.000453483 to 0.000453483
Heightened Def Con from 0.000453483 to 0.000453483
Heightened Def Con from 0.000453483 to 0.000453483
Heightened Def Con from 0.000453483 to 0.000453483
Heightened Def Con from 0.000453483 to 0.000453483
Heightened Def Con from 0.000453483 to 0.000453484
Heightened Def Con from 0.000453484 to 0.000453484
Heightened Def Con from 0.000453484 to 0.000453485
Heightened Def Con from 0.000453485 to 0.000453485
Heightened Def Con from 0.000453485 to 0.000453485
Heightened Def Con from 0.000453485 to 0.000453485
Heightened Def Con from 0.000453485 to 0.000453487
Heightened Def Con from 0.000453487 to 0.000453487
Heightened Def Con from 0.000453487 to 0.000453489
Heightened Def Con from 0.000453489 to 0.00045349
Heightened Def Con from 0.00045349 to 0.00045349
Heightened Def Con from 0.00045349 to 0.000453491
Heightened Def Con from 0.000453491 to 0.000453491
Heightened Def Con from 0.000453491 to 0.000453491
Heightened Def Con from 0.000453491 to 0.000453491
Heightened Def Con from 0.000453491 to 0.000453491
Heightened Def Con from 0.000453491 to 0.000453491
Heightened Def Con from 0.000453491 to 0.000453492
Heightened Def Con from 0.000453492 to 0.000453492
Heightened Def Con from 0.000453492 to 0.000453493
Heightened Def Con from 0.000453493 to 0.000453493
Heightened Def Con from 0.000453493 to 0.000453493
Heightened Def Con from 0.000453493 to 0.000453493
Heightened Def Con from 0.000453493 to 0.000453493
Heightened Def Con from 0.000453493 to 0.000453494
Heightened Def Con from 0.000453494 to 0.000453494
Heightened Def Con from 0.000453494 to 0.000453494
Heightened Def Con from 0.000453494 to 0.000453495
Heightened Def Con from 0.000453495 to 0.000453495
Heightened Def Con from 0.000453495 to 0.000453495
Heightened Def Con from 0.000453495 to 0.000453495
Heightened Def Con from 0.000453495 to 0.000453495
Heightened Def Con from 0.000453495 to 0.000453496
Heightened Def Con from 0.000453496 to 0.000453496
Heightened Def Con from 0.000453496 to 0.000453497
Heightened Def Con from 0.000453497 to 0.000453497
Heightened Def Con from 0.000453497 to 0.000453497
Heightened Def Con from 0.000453497 to 0.000453497
Heightened Def Con from 0.000453497 to 0.000453497
Heightened Def Con from 0.000453497 to 0.000453497
Heightened Def Con from 0.000453497 to 0.000453497
Heightened Def Con from 0.000453497 to 0.000453497
Heightened Def Con from 0.000453497 to 0.000453499
Heightened Def Con from 0.000453499 to 0.000453499
Heightened Def Con from 0.000453499 to 0.000453499
Heightened Def Con from 0.000453499 to 0.000453501
Heightened Def Con from 0.000453501 to 0.000453501
Heightened Def Con from 0.000453501 to 0.000453501
Heightened Def Con from 0.000453501 to 0.000453501
Heightened Def Con from 0.000453501 to 0.000453502
Heightened Def Con from 0.000453503 to 0.000453503
Heightened Def Con from 0.000453503 to 0.000453503
Heightened Def Con from 0.000453503 to 0.000453503
Heightened Def Con from 0.000453503 to 0.000453504
Heightened Def Con from 0.000453504 to 0.000453504
Heightened Def Con from 0.000453504 to 0.000453505
Heightened Def Con from 0.000453505 to 0.000453505
Heightened Def Con from 0.000453505 to 0.000453505
Heightened Def Con from 0.000453505 to 0.000453507
Heightened Def Con from 0.000453507 to 0.000453507
Heightened Def Con from 0.000453507 to 0.000453507
Heightened Def Con from 0.000453507 to 0.000453507
Heightened Def Con from 0.000453507 to 0.000453507
Heightened Def Con from 0.000453507 to 0.000453507
Heightened Def Con from 0.000453507 to 0.000453507
Heightened Def Con from 0.000453507 to 0.000453507
Heightened Def Con from 0.000453507 to 0.000453507
Heightened Def Con from 0.000453507 to 0.000453507
Heightened Def Con from 0.000453507 to 0.000453508
Heightened Def Con from 0.000453508 to 0.000453508
Heightened Def Con from 0.000453508 to 0.000453508
Heightened Def Con from 0.000453508 to 0.00045351
Heightened Def Con from 0.000453513 to 0.000453514
Heightened Def Con from 0.000453514 to 0.000453514
Heightened Def Con from 0.000453514 to 0.000453514
Heightened Def Con from 0.000453514 to 0.000453514
Heightened Def Con from 0.000453514 to 0.000453515
Heightened Def Con from 0.000453515 to 0.000453516
Heightened Def Con from 0.000453516 to 0.000453516
Heightened Def Con from 0.000453516 to 0.000453516
Heightened Def Con from 0.000453516 to 0.000453516
Heightened Def Con from 0.000453516 to 0.000453516
Heightened Def Con from 0.000453516 to 0.000453516
Heightened Def Con from 0.000453516 to 0.000453517
Heightened Def Con from 0.000453517 to 0.000453517
Heightened Def Con from 0.000453518 to 0.000453518
Heightened Def Con from 0.000453518 to 0.000453518
Heightened Def Con from 0.000453518 to 0.000453518
Heightened Def Con from 0.000453518 to 0.000453519
Heightened Def Con from 0.000453519 to 0.000453519
Heightened Def Con from 0.000453519 to 0.000453519
Heightened Def Con from 0.000453519 to 0.000453519
Heightened Def Con from 0.000453519 to 0.000453519
Heightened Def Con from 0.000453519 to 0.000453519
Heightened Def Con from 0.000453519 to 0.000453519
Heightened Def Con from 0.00045352 to 0.00045352
Heightened Def Con from 0.00045352 to 0.00045352
Heightened Def Con from 0.00045352 to 0.00045352
Heightened Def Con from 0.00045352 to 0.00045352
Heightened Def Con from 0.00045352 to 0.00045352
Heightened Def Con from 0.00045352 to 0.00045352
Heightened Def Con from 0.00045352 to 0.00045352
Heightened Def Con from 0.00045352 to 0.00045352
Heightened Def Con from 0.00045352 to 0.00045352
Heightened Def Con from 0.00045352 to 0.00045352
Heightened Def Con from 0.00045352 to 0.00045352
Heightened Def Con from 0.00045352 to 0.00045352
Heightened Def Con from 0.00045352 to 0.00045352
Heightened Def Con from 0.00045352 to 0.00045352
Heightened Def Con from 0.00045352 to 0.00045352
Heightened Def Con from 0.00045352 to 0.00045352
Heightened Def Con from 0.00045352 to 0.00045352
Heightened Def Con from 0.00045352 to 0.00045352
Heightened Def Con from 0.00045352 to 0.00045352
Heightened Def Con from 0.00045352 to 0.00045352
Heightened Def Con from 0.00045352 to 0.00045352
Heightened Def Con from 0.00045352 to 0.00045352
Heightened Def Con from 0.00045352 to 0.00045352
Heightened Def Con from 0.00045352 to 0.000453522
Heightened Def Con from 0.000453525 to 0.000453525
Heightened Def Con from 0.000453525 to 0.000453525
Heightened Def Con from 0.000453525 to 0.000453525
Heightened Def Con from 0.000453525 to 0.000453525
Heightened Def Con from 0.000453525 to 0.000453525
Heightened Def Con from 0.000453525 to 0.000453525
Heightened Def Con from 0.000453525 to 0.000453527
Heightened Def Con from 0.000453527 to 0.000453529
Heightened Def Con from 0.000453529 to 0.00045353
Heightened Def Con from 0.00045353 to 0.000453531
Heightened Def Con from 0.000453531 to 0.000453531
Heightened Def Con from 0.000453531 to 0.000453531
Heightened Def Con from 0.000453531 to 0.000453531
Heightened Def Con from 0.000453531 to 0.000453531
Heightened Def Con from 0.000453531 to 0.000453531
Heightened Def Con from 0.000453531 to 0.000453531
Heightened Def Con from 0.000453531 to 0.000453531
Heightened Def Con from 0.000453531 to 0.000453532
Heightened Def Con from 0.000453532 to 0.000453533
Heightened Def Con from 0.000453533 to 0.000453533
Heightened Def Con from 0.000453533 to 0.000453533
Heightened Def Con from 0.000453533 to 0.000453535
Heightened Def Con from 0.000453535 to 0.000453536
Heightened Def Con from 0.000453536 to 0.000453536
Heightened Def Con from 0.000453536 to 0.000453536
[...]
Heightened Def Con from 0.00201708 to 0.00201708
Heightened Def Con from 0.00201708 to 0.00201708
Heightened Def Con from 0.00201708 to 0.00201708
Heightened Def Con from 0.00201708 to 0.00201708
Heightened Def Con from 0.00201708 to 0.00201708
Heightened Def Con from 0.00201708 to 0.00201708
Heightened Def Con from 0.00201708 to 0.00201708
Heightened Def Con from 0.00201708 to 0.00201708
Heightened Def Con from 0.00201708 to 0.00201708
Heightened Def Con from 0.00201708 to 0.00201708
Heightened Def Con from 0.00201709 to 0.00201709
Heightened Def Con from 0.00201709 to 0.00201709
Heightened Def Con from 0.00201709 to 0.00201709
Heightened Def Con from 0.00201709 to 0.00201709
Heightened Def Con from 0.00201709 to 0.00201709
Heightened Def Con from 0.00201709 to 0.00201709
Heightened Def Con from 0.00201709 to 0.00201709
Heightened Def Con from 0.00201709 to 0.00201709
Heightened Def Con from 0.00201709 to 0.00201709
Heightened Def Con from 0.00201709 to 0.00201709
Heightened Def Con from 0.00201709 to 0.00201709
Heightened Def Con from 0.00201709 to 0.00201709
Heightened Def Con from 0.00201709 to 0.00201709
Heightened Def Con from 0.00201709 to 0.00201709
Heightened Def Con from 0.00201709 to 0.00201709
Heightened Def Con from 0.00201709 to 0.00201709
Heightened Def Con from 0.00201709 to 0.00201709
Heightened Def Con from 0.00201709 to 0.00201709
Heightened Def Con from 0.00201709 to 0.00201709
Heightened Def Con from 0.00201709 to 0.00201709
Heightened Def Con from 0.00201709 to 0.00201709
Heightened Def Con from 0.00201709 to 0.00201709
Heightened Def Con from 0.00201709 to 0.0020171
Heightened Def Con from 0.0020171 to 0.0020171
Heightened Def Con from 0.0020171 to 0.0020171
Heightened Def Con from 0.0020171 to 0.0020171
Heightened Def Con from 0.0020171 to 0.0020171
Heightened Def Con from 0.0020171 to 0.0020171
Heightened Def Con from 0.0020171 to 0.0020171
Heightened Def Con from 0.0020171 to 0.0020171
Heightened Def Con from 0.0020171 to 0.0020171
Heightened Def Con from 0.0020171 to 0.0020171
Heightened Def Con from 0.0020171 to 0.0020171
Heightened Def Con from 0.0020171 to 0.0020171
Heightened Def Con from 0.0020171 to 0.0020171
Heightened Def Con from 0.0020171 to 0.0020171
Heightened Def Con from 0.0020171 to 0.0020171
Heightened Def Con from 0.0020171 to 0.0020171
Heightened Def Con from 0.0020171 to 0.0020171
Heightened Def Con from 0.0020171 to 0.0020171
Heightened Def Con from 0.0020171 to 0.0020171
Heightened Def Con from 0.0020171 to 0.0020171
Heightened Def Con from 0.0020171 to 0.0020171
Heightened Def Con from 0.0020171 to 0.0020171
Heightened Def Con from 0.0020171 to 0.0020171
Heightened Def Con from 0.0020171 to 0.0020171
Heightened Def Con from 0.0020171 to 0.0020171
Heightened Def Con from 0.0020171 to 0.0020171
Heightened Def Con from 0.0020171 to 0.0020171
Heightened Def Con from 0.0020171 to 0.00201711
Heightened Def Con from 0.00201711 to 0.00201711
Heightened Def Con from 0.00201711 to 0.00201711
Heightened Def Con from 0.00201711 to 0.00201711
Heightened Def Con from 0.00201711 to 0.00201711
Heightened Def Con from 0.00201711 to 0.00201711
Heightened Def Con from 0.00201711 to 0.00201711
Heightened Def Con from 0.00201711 to 0.00201711
Heightened Def Con from 0.00201711 to 0.00201711
Heightened Def Con from 0.00201711 to 0.00201711
Heightened Def Con from 0.00201711 to 0.00201711
Heightened Def Con from 0.00201711 to 0.00201711
Heightened Def Con from 0.00201711 to 0.00201711
Heightened Def Con from 0.00201711 to 0.00201711
Heightened Def Con from 0.00201711 to 0.00201711
Heightened Def Con from 0.00201711 to 0.00201711
Heightened Def Con from 0.00201711 to 0.00201712
Heightened Def Con from 0.00201712 to 0.00201712
Heightened Def Con from 0.00201712 to 0.00201712
Heightened Def Con from 0.00201712 to 0.00201712
Heightened Def Con from 0.00201712 to 0.00201712
Heightened Def Con from 0.00201712 to 0.00201712
Heightened Def Con from 0.00201712 to 0.00201712
Heightened Def Con from 0.00201712 to 0.00201712
Heightened Def Con from 0.00201712 to 0.00201712
Heightened Def Con from 0.00201712 to 0.00201712
Heightened Def Con from 0.00201712 to 0.00201712
Heightened Def Con from 0.00201712 to 0.00201712
Heightened Def Con from 0.00201712 to 0.00201712
Heightened Def Con from 0.00201712 to 0.00201712
Heightened Def Con from 0.00201712 to 0.00201712
Heightened Def Con from 0.00201712 to 0.00201712
Heightened Def Con from 0.00201712 to 0.00201712
Heightened Def Con from 0.00201712 to 0.00201712
Heightened Def Con from 0.00201712 to 0.00201712
Heightened Def Con from 0.00201712 to 0.00201712
Heightened Def Con from 0.00201712 to 0.00201712
Heightened Def Con from 0.00201712 to 0.00201712
Heightened Def Con from 0.00201712 to 0.00201712
Heightened Def Con from 0.00201712 to 0.00201712
Heightened Def Con from 0.00201712 to 0.00201712
Heightened Def Con from 0.00201712 to 0.00201712
Heightened Def Con from 0.00201712 to 0.00201713
Heightened Def Con from 0.00201713 to 0.00201713
Heightened Def Con from 0.00201713 to 0.00201713
Heightened Def Con from 0.00201713 to 0.00201713
Heightened Def Con from 0.00201713 to 0.00201713
Heightened Def Con from 0.00201713 to 0.00201713
Heightened Def Con from 0.00201713 to 0.00201713
Heightened Def Con from 0.00201713 to 0.00201713
Heightened Def Con from 0.00201713 to 0.00201713
Heightened Def Con from 0.00201713 to 0.00201713
Heightened Def Con from 0.00201713 to 0.00201713
Heightened Def Con from 0.00201713 to 0.00201713
Heightened Def Con from 0.00201713 to 0.00201713
Heightened Def Con from 0.00201713 to 0.00201713
Heightened Def Con from 0.00201713 to 0.00201713
Heightened Def Con from 0.00201713 to 0.00201713
Heightened Def Con from 0.00201713 to 0.00201713
Heightened Def Con from 0.00201713 to 0.00201713
Heightened Def Con from 0.00201713 to 0.00201713
Heightened Def Con from 0.00201713 to 0.00201713
Heightened Def Con from 0.00201713 to 0.00201713
Heightened Def Con from 0.00201713 to 0.00201713
Heightened Def Con from 0.00201713 to 0.00201713
Heightened Def Con from 0.00201713 to 0.00201713
Heightened Def Con from 0.00201713 to 0.00201713
Heightened Def Con from 0.00201713 to 0.00201713
Heightened Def Con from 0.00201713 to 0.00201713
Heightened Def Con from 0.00201713 to 0.00201713
Heightened Def Con from 0.00201713 to 0.00201713
Heightened Def Con from 0.00201713 to 0.00201713
Heightened Def Con from 0.00201713 to 0.00201713
Heightened Def Con from 0.00201713 to 0.00201714
Heightened Def Con from 0.00201714 to 0.00201714
Heightened Def Con from 0.00201714 to 0.00201714
Heightened Def Con from 0.00201714 to 0.00201714
Heightened Def Con from 0.00201714 to 0.00201714
Heightened Def Con from 0.00201714 to 0.00201714
Heightened Def Con from 0.00201714 to 0.00201714
Heightened Def Con from 0.00201714 to 0.00201714
Heightened Def Con from 0.00201714 to 0.00201714
Heightened Def Con from 0.00201714 to 0.00201714
Heightened Def Con from 0.00201714 to 0.00201714
Heightened Def Con from 0.00201714 to 0.00201714
Heightened Def Con from 0.00201714 to 0.00201714
Heightened Def Con from 0.00201714 to 0.00201714
Heightened Def Con from 0.00201714 to 0.00201714
Heightened Def Con from 0.00201714 to 0.00201714
Heightened Def Con from 0.00201714 to 0.00201714
Heightened Def Con from 0.00201714 to 0.00201714
Heightened Def Con from 0.00201714 to 0.00201714
Heightened Def Con from 0.00201714 to 0.00201714
Heightened Def Con from 0.00201714 to 0.00201714
Heightened Def Con from 0.00201714 to 0.00201714
Heightened Def Con from 0.00201714 to 0.00201714
Heightened Def Con from 0.00201714 to 0.00201714
Heightened Def Con from 0.00201714 to 0.00201714
Heightened Def Con from 0.00201714 to 0.00201714
Heightened Def Con from 0.00201714 to 0.00201714
Heightened Def Con from 0.00201714 to 0.00201714
Heightened Def Con from 0.00201714 to 0.00201714
Heightened Def Con from 0.00201714 to 0.00201714
Heightened Def Con from 0.00201714 to 0.00201714
Heightened Def Con from 0.00201714 to 0.00201714
Heightened Def Con from 0.00201714 to 0.00201714
Heightened Def Con from 0.00201714 to 0.00201715
Heightened Def Con from 0.00201715 to 0.00201715
Heightened Def Con from 0.00201715 to 0.00201715
Heightened Def Con from 0.00201715 to 0.00201715
Heightened Def Con from 0.00201715 to 0.00201715
Heightened Def Con from 0.00201715 to 0.00201715
Heightened Def Con from 0.00201715 to 0.00201715
Heightened Def Con from 0.00201715 to 0.00201715
Heightened Def Con from 0.00201715 to 0.00201715
Heightened Def Con from 0.00201715 to 0.00201715
Heightened Def Con from 0.00201715 to 0.00201715
Heightened Def Con from 0.00201715 to 0.00201715
Heightened Def Con from 0.00201715 to 0.00201715
Heightened Def Con from 0.00201715 to 0.00201715
Heightened Def Con from 0.00201715 to 0.00201715
Heightened Def Con from 0.00201715 to 0.00201715
Heightened Def Con from 0.00201715 to 0.00201715
Heightened Def Con from 0.00201715 to 0.00201715
Heightened Def Con from 0.00201715 to 0.00201715
Heightened Def Con from 0.00201715 to 0.00201715
Heightened Def Con from 0.00201715 to 0.00201715
Heightened Def Con from 0.00201715 to 0.00201715
Heightened Def Con from 0.00201715 to 0.00201715
Heightened Def Con from 0.00201715 to 0.00201715
Heightened Def Con from 0.00201715 to 0.00201715
Heightened Def Con from 0.00201715 to 0.00201715
Heightened Def Con from 0.00201715 to 0.00201715
Heightened Def Con from 0.00201715 to 0.00201715
Heightened Def Con from 0.00201715 to 0.00201715
Heightened Def Con from 0.00201715 to 0.00201715
Heightened Def Con from 0.00201715 to 0.00201715
Heightened Def Con from 0.00201715 to 0.00201715
Heightened Def Con from 0.00201716 to 0.00201716
Heightened Def Con from 0.00201716 to 0.00201716
Heightened Def Con from 0.00201716 to 0.00201716
Heightened Def Con from 0.00201716 to 0.00201716
Heightened Def Con from 0.00201716 to 0.00201716
Heightened Def Con from 0.00201716 to 0.00201716
Heightened Def Con from 0.00201716 to 0.00201716
Heightened Def Con from 0.00201716 to 0.00201716
Heightened Def Con from 0.00201716 to 0.00201716
Heightened Def Con from 0.00201716 to 0.00201716
Heightened Def Con from 0.00201716 to 0.00201716
Heightened Def Con from 0.00201716 to 0.00201716
Heightened Def Con from 0.00201716 to 0.00201716
Heightened Def Con from 0.00201716 to 0.00201716
Heightened Def Con from 0.00201716 to 0.00201716
Heightened Def Con from 0.00201716 to 0.00201716
Heightened Def Con from 0.00201716 to 0.00201716
Heightened Def Con from 0.00201716 to 0.00201716
Heightened Def Con from 0.00201716 to 0.00201716
Heightened Def Con from 0.00201716 to 0.00201716
Heightened Def Con from 0.00201716 to 0.00201716
Heightened Def Con from 0.00201716 to 0.00201716
Heightened Def Con from 0.00201716 to 0.00201716
Heightened Def Con from 0.00201716 to 0.00201716
Heightened Def Con from 0.00201716 to 0.00201716
Heightened Def Con from 0.00201716 to 0.00201716
Heightened Def Con from 0.00201716 to 0.00201716
Heightened Def Con from 0.00201716 to 0.00201717
Heightened Def Con from 0.00201717 to 0.00201717
Heightened Def Con from 0.00201717 to 0.00201717
Heightened Def Con from 0.00201717 to 0.00201717
Heightened Def Con from 0.00201717 to 0.00201717
Heightened Def Con from 0.00201717 to 0.00201717
Heightened Def Con from 0.00201717 to 0.00201717
Heightened Def Con from 0.00201717 to 0.00201717
Heightened Def Con from 0.00201717 to 0.00201717
Heightened Def Con from 0.00201717 to 0.00201717
Heightened Def Con from 0.00201717 to 0.00201717
Heightened Def Con from 0.00201717 to 0.00201717
Heightened Def Con from 0.00201717 to 0.00201717
Heightened Def Con from 0.00201717 to 0.00201717
Heightened Def Con from 0.00201717 to 0.00201717
Heightened Def Con from 0.00201717 to 0.00201717
Heightened Def Con from 0.00201717 to 0.00201717
Heightened Def Con from 0.00201717 to 0.00201717
Heightened Def Con from 0.00201717 to 0.00201717
Heightened Def Con from 0.00201717 to 0.00201717
Heightened Def Con from 0.00201717 to 0.00201718
Heightened Def Con from 0.00201718 to 0.00201718
Heightened Def Con from 0.00201718 to 0.00201718
Heightened Def Con from 0.00201718 to 0.00201718
Heightened Def Con from 0.00201718 to 0.00201718
Heightened Def Con from 0.00201718 to 0.00201718
Heightened Def Con from 0.00201718 to 0.00201718
Heightened Def Con from 0.00201718 to 0.00201718
Heightened Def Con from 0.00201718 to 0.00201718
Heightened Def Con from 0.00201718 to 0.00201718
Heightened Def Con from 0.00201718 to 0.00201718
Heightened Def Con from 0.00201718 to 0.00201718
Heightened Def Con from 0.00201718 to 0.00201718
Heightened Def Con from 0.00201718 to 0.00201718
Heightened Def Con from 0.00201718 to 0.00201718
Heightened Def Con from 0.00201718 to 0.00201718
Heightened Def Con from 0.00201718 to 0.00201718
Heightened Def Con from 0.00201718 to 0.00201718
Heightened Def Con from 0.00201718 to 0.00201718
Heightened Def Con from 0.00201718 to 0.00201718
Heightened Def Con from 0.00201718 to 0.00201719
Heightened Def Con from 0.00201719 to 0.00201719
Heightened Def Con from 0.00201719 to 0.00201719
Heightened Def Con from 0.00201719 to 0.00201719
Heightened Def Con from 0.00201719 to 0.00201719
Heightened Def Con from 0.00201719 to 0.00201719
Heightened Def Con from 0.00201719 to 0.00201719
Heightened Def Con from 0.00201719 to 0.00201719
Heightened Def Con from 0.00201719 to 0.00201719
Heightened Def Con from 0.00201719 to 0.00201719
Heightened Def Con from 0.00201719 to 0.0020172
Heightened Def Con from 0.0020172 to 0.0020172
Heightened Def Con from 0.0020172 to 0.0020172
Heightened Def Con from 0.0020172 to 0.0020172
Heightened Def Con from 0.0020172 to 0.0020172
Heightened Def Con from 0.0020172 to 0.0020172
Heightened Def Con from 0.0020172 to 0.0020172
Heightened Def Con from 0.0020172 to 0.0020172
Heightened Def Con from 0.0020172 to 0.0020172
Heightened Def Con from 0.0020172 to 0.0020172
Heightened Def Con from 0.0020172 to 0.0020172
Heightened Def Con from 0.0020172 to 0.0020172
Heightened Def Con from 0.0020172 to 0.0020172
Heightened Def Con from 0.0020172 to 0.0020172
Heightened Def Con from 0.0020172 to 0.0020172
Heightened Def Con from 0.0020172 to 0.0020172
Heightened Def Con from 0.0020172 to 0.0020172
Heightened Def Con from 0.0020172 to 0.0020172
Heightened Def Con from 0.0020172 to 0.0020172
Heightened Def Con from 0.0020172 to 0.0020172
Heightened Def Con from 0.0020172 to 0.0020172
Heightened Def Con from 0.0020172 to 0.0020172
Heightened Def Con from 0.0020172 to 0.0020172
Heightened Def Con from 0.0020172 to 0.0020172
Heightened Def Con from 0.0020172 to 0.0020172
Heightened Def Con from 0.0020172 to 0.0020172
Heightened Def Con from 0.0020172 to 0.0020172
Heightened Def Con from 0.0020172 to 0.0020172
Heightened Def Con from 0.0020172 to 0.0020172
Heightened Def Con from 0.0020172 to 0.0020172
Heightened Def Con from 0.0020172 to 0.0020172
Heightened Def Con from 0.0020172 to 0.0020172
Heightened Def Con from 0.0020172 to 0.0020172
Heightened Def Con from 0.0020172 to 0.0020172
Heightened Def Con from 0.0020172 to 0.00201721
Heightened Def Con from 0.00201721 to 0.00201721
Heightened Def Con from 0.00201721 to 0.00201721
Heightened Def Con from 0.00201721 to 0.00201721
Heightened Def Con from 0.00201721 to 0.00201721
Heightened Def Con from 0.00201721 to 0.00201721
Heightened Def Con from 0.00201721 to 0.00201721
Heightened Def Con from 0.00201721 to 0.00201721
Heightened Def Con from 0.00201721 to 0.00201721
Heightened Def Con from 0.00201721 to 0.00201721
Heightened Def Con from 0.00201721 to 0.00201721
Heightened Def Con from 0.00201721 to 0.00201721
Heightened Def Con from 0.00201721 to 0.00201721
Heightened Def Con from 0.00201721 to 0.00201721
Heightened Def Con from 0.00201721 to 0.00201721
Heightened Def Con from 0.00201721 to 0.00201721
Heightened Def Con from 0.00201721 to 0.00201721
Heightened Def Con from 0.00201721 to 0.00201721
Heightened Def Con from 0.00201721 to 0.00201721
Heightened Def Con from 0.00201721 to 0.00201721
Heightened Def Con from 0.00201721 to 0.00201721
Heightened Def Con from 0.00201721 to 0.00201721
Heightened Def Con from 0.00201721 to 0.00201721
Heightened Def Con from 0.00201721 to 0.00201721
Heightened Def Con from 0.00201721 to 0.00201721
Heightened Def Con from 0.00201721 to 0.00201721
Heightened Def Con from 0.00201721 to 0.00201721
Heightened Def Con from 0.00201721 to 0.00201721
Heightened Def Con from 0.00201721 to 0.00201721
Heightened Def Con from 0.00201721 to 0.00201721
Heightened Def Con from 0.00201721 to 0.00201721
Heightened Def Con from 0.00201721 to 0.00201721
Heightened Def Con from 0.00201721 to 0.00201721
Heightened Def Con from 0.00201721 to 0.00201721
Heightened Def Con from 0.00201721 to 0.00201721
Heightened Def Con from 0.00201721 to 0.00201721
Heightened Def Con from 0.00201721 to 0.00201721
Heightened Def Con from 0.00201722 to 0.00201722
Heightened Def Con from 0.00201722 to 0.00201722
Heightened Def Con from 0.00201722 to 0.00201722
Heightened Def Con from 0.00201722 to 0.00201722
Heightened Def Con from 0.00201722 to 0.00201722
Heightened Def Con from 0.00201722 to 0.00201722
Heightened Def Con from 0.00201722 to 0.00201722
Heightened Def Con from 0.00201722 to 0.00201722
Heightened Def Con from 0.00201722 to 0.00201722
Heightened Def Con from 0.00201722 to 0.00201722
Heightened Def Con from 0.00201722 to 0.00201722
Heightened Def Con from 0.00201722 to 0.00201722
Heightened Def Con from 0.00201722 to 0.00201722
Heightened Def Con from 0.00201722 to 0.00201722
Heightened Def Con from 0.00201722 to 0.00201722
Heightened Def Con from 0.00201722 to 0.00201722
Heightened Def Con from 0.00201722 to 0.00201722
Heightened Def Con from 0.00201722 to 0.00201723
Heightened Def Con from 0.00201723 to 0.00201723
Heightened Def Con from 0.00201723 to 0.00201723
Heightened Def Con from 0.00201723 to 0.00201723
Heightened Def Con from 0.00201723 to 0.00201723
Heightened Def Con from 0.00201723 to 0.00201723
Heightened Def Con from 0.00201723 to 0.00201723
Heightened Def Con from 0.00201723 to 0.00201723
Heightened Def Con from 0.00201723 to 0.00201723
Heightened Def Con from 0.00201723 to 0.00201723
Heightened Def Con from 0.00201723 to 0.00201723
Heightened Def Con from 0.00201723 to 0.00201723
Heightened Def Con from 0.00201723 to 0.00201723
Heightened Def Con from 0.00201723 to 0.00201723
Heightened Def Con from 0.00201723 to 0.00201723
Heightened Def Con from 0.00201723 to 0.00201724
Heightened Def Con from 0.00201724 to 0.00201724
Heightened Def Con from 0.00201724 to 0.00201724
Heightened Def Con from 0.00201724 to 0.00201724
Heightened Def Con from 0.00201724 to 0.00201724
Heightened Def Con from 0.00201724 to 0.00201724
Heightened Def Con from 0.00201724 to 0.00201724
Heightened Def Con from 0.00201724 to 0.00201724
Heightened Def Con from 0.00201724 to 0.00201724
Heightened Def Con from 0.00201724 to 0.00201724
Heightened Def Con from 0.00201724 to 0.00201724
Heightened Def Con from 0.00201724 to 0.00201724
Heightened Def Con from 0.00201724 to 0.00201724
Heightened Def Con from 0.00201724 to 0.00201724
Heightened Def Con from 0.00201724 to 0.00201724
Heightened Def Con from 0.00201724 to 0.00201724
Heightened Def Con from 0.00201724 to 0.00201725
Heightened Def Con from 0.00201725 to 0.00201725
Heightened Def Con from 0.00201725 to 0.00201725
Heightened Def Con from 0.00201725 to 0.00201725
Heightened Def Con from 0.00201725 to 0.00201725
Heightened Def Con from 0.00201725 to 0.00201725
Heightened Def Con from 0.00201725 to 0.00201725
Heightened Def Con from 0.00201725 to 0.00201725
Heightened Def Con from 0.00201725 to 0.00201725
Heightened Def Con from 0.00201725 to 0.00201725

Date: Mon Feb 20 16:58:51 2023
Total elapsed time: 9.647 seconds.

tnom = 27
temp = 27
method = modified trap
totiter = 7053572
traniter = 7053560
tranpoints = 884042
accept = 456291
rejected = 456857
matrix size = 15
fillins = 5
solver = Normal
Matrix Compiler1:      53 opcodes  0.2/[0.1]/0.1
Matrix Compiler2: 1.21 KB object code size  0.1/0.1/[0.1]

